# generated using pymatgen
data_Mg80Ir119
_symmetry_space_group_name_H-M   'P 1'
_cell_length_a   5.24707500
_cell_length_b   21.51305055
_cell_length_c   52.37228200
_cell_angle_alpha   80.49835411
_cell_angle_beta   90.00000000
_cell_angle_gamma   90.00000000
_symmetry_Int_Tables_number   1
_chemical_formula_structural   Mg80Ir119
_chemical_formula_sum   'Mg80 Ir119'
_cell_volume   5830.70907253
_cell_formula_units_Z   1
loop_
 _symmetry_equiv_pos_site_id
 _symmetry_equiv_pos_as_xyz
  1  'x, y, z'
loop_
 _atom_site_type_symbol
 _atom_site_label
 _atom_site_symmetry_multiplicity
 _atom_site_fract_x
 _atom_site_fract_y
 _atom_site_fract_z
 _atom_site_occupancy
  Mg  Mg0  1  0.50000000  0.79652100  0.23217200  1
  Mg  Mg1  1  0.00000000  0.76904900  0.26497100  1
  Mg  Mg2  1  0.00000000  0.56051300  0.22173300  1
  Mg  Mg3  1  0.50000000  0.00505600  0.27541000  1
  Mg  Mg4  1  0.50000000  0.89707800  0.32210500  1
  Mg  Mg5  1  0.00000000  0.81134900  0.31789500  1
  Mg  Mg6  1  0.50000000  0.93016800  0.22365500  1
  Mg  Mg7  1  0.00000000  0.63540100  0.27348700  1
  Mg  Mg8  1  0.50000000  0.56060600  0.25536100  1
  Mg  Mg9  1  0.00000000  0.00496300  0.24178200  1
  Mg  Mg10  1  0.00000000  0.36794900  0.30360000  1
  Mg  Mg11  1  0.50000000  0.34047700  0.33640000  1
  Mg  Mg12  1  0.50000000  0.13194200  0.29316100  1
  Mg  Mg13  1  0.00000000  0.57648500  0.34683900  1
  Mg  Mg14  1  1.00000000  0.32564900  0.25067600  1
  Mg  Mg15  1  0.50000000  0.23992000  0.24646700  1
  Mg  Mg16  1  0.00000000  0.50159700  0.29508400  1
  Mg  Mg17  1  0.50000000  0.20683000  0.34491600  1
  Mg  Mg18  1  0.00000000  0.13203500  0.32678900  1
  Mg  Mg19  1  0.50000000  0.57639200  0.31321100  1
  Mg  Mg20  1  0.50000000  0.93937800  0.37502900  1
  Mg  Mg21  1  0.00000000  0.91190600  0.40782800  1
  Mg  Mg22  1  1.00000000  0.70337000  0.36459000  1
  Mg  Mg23  1  0.50000000  0.14791300  0.41826700  1
  Mg  Mg24  1  0.50000000  0.03993500  0.46496200  1
  Mg  Mg25  1  0.00000000  0.95420600  0.46075300  1
  Mg  Mg26  1  0.50000000  0.07302500  0.36651300  1
  Mg  Mg27  1  0.00000000  0.77825800  0.41634500  1
  Mg  Mg28  1  0.50000000  0.70346300  0.39821800  1
  Mg  Mg29  1  0.00000000  0.14782100  0.38463900  1
  Mg  Mg30  1  0.00000000  0.51080600  0.44645700  1
  Mg  Mg31  1  0.50000000  0.48333500  0.47925700  1
  Mg  Mg32  1  0.50000000  0.27479900  0.43601800  1
  Mg  Mg33  1  0.00000000  0.71934200  0.48969600  1
  Mg  Mg34  1  0.00000000  0.46850700  0.39353300  1
  Mg  Mg35  1  0.50000000  0.38277700  0.38932400  1
  Mg  Mg36  1  0.00000000  0.64445400  0.43794100  1
  Mg  Mg37  1  0.50000000  0.34968700  0.48777300  1
  Mg  Mg38  1  0.00000000  0.27489200  0.46964700  1
  Mg  Mg39  1  0.50000000  0.71924900  0.45606800  1
  Mg  Mg40  1  0.50000000  0.08223500  0.51788600  1
  Mg  Mg41  1  0.00000000  0.05476300  0.55068500  1
  Mg  Mg42  1  0.00000000  0.84622700  0.50744700  1
  Mg  Mg43  1  0.50000000  0.29077100  0.56112400  1
  Mg  Mg44  1  0.50000000  0.18279200  0.60781900  1
  Mg  Mg45  1  0.00000000  0.09706300  0.60361000  1
  Mg  Mg46  1  0.50000000  0.21588300  0.50937000  1
  Mg  Mg47  1  1.00000000  0.92111500  0.55920200  1
  Mg  Mg48  1  0.50000000  0.84632000  0.54107500  1
  Mg  Mg49  1  0.00000000  0.29067800  0.52749600  1
  Mg  Mg50  1  0.00000000  0.65366300  0.58931500  1
  Mg  Mg51  1  0.50000000  0.62619200  0.62211400  1
  Mg  Mg52  1  0.50000000  0.41765600  0.57887600  1
  Mg  Mg53  1  0.00000000  0.86219900  0.63255300  1
  Mg  Mg54  1  0.00000000  0.61136400  0.53639000  1
  Mg  Mg55  1  0.50000000  0.52563400  0.53218100  1
  Mg  Mg56  1  1.00000000  0.78731100  0.58079800  1
  Mg  Mg57  1  0.50000000  0.49254400  0.63063000  1
  Mg  Mg58  1  0.00000000  0.41774900  0.61250400  1
  Mg  Mg59  1  0.50000000  0.86210600  0.59892500  1
  Mg  Mg60  1  0.50000000  0.22509200  0.66074300  1
  Mg  Mg61  1  0.00000000  0.19762000  0.69354300  1
  Mg  Mg62  1  0.00000000  0.98908500  0.65030400  1
  Mg  Mg63  1  0.50000000  0.43362800  0.70398200  1
  Mg  Mg64  1  0.50000000  0.32564900  0.75067600  1
  Mg  Mg65  1  0.00000000  0.23992000  0.74646700  1
  Mg  Mg66  1  0.50000000  0.35874000  0.65222700  1
  Mg  Mg67  1  0.00000000  0.06397300  0.70205900  1
  Mg  Mg68  1  0.50000000  0.98917700  0.68393200  1
  Mg  Mg69  1  0.00000000  0.43353500  0.67035300  1
  Mg  Mg70  1  0.00000000  0.79652100  0.73217200  1
  Mg  Mg71  1  0.50000000  0.76904900  0.76497100  1
  Mg  Mg72  1  0.50000000  0.56051300  0.72173300  1
  Mg  Mg73  1  1.00000000  0.00505600  0.77541000  1
  Mg  Mg74  1  0.00000000  0.75422100  0.67924700  1
  Mg  Mg75  1  0.50000000  0.66849200  0.67503800  1
  Mg  Mg76  1  0.00000000  0.93016800  0.72365500  1
  Mg  Mg77  1  0.50000000  0.63540100  0.77348700  1
  Mg  Mg78  1  0.00000000  0.56060600  0.75536100  1
  Mg  Mg79  1  0.50000000  0.00496300  0.74178200  1
  Ir  Ir80  1  0.00000000  0.88063500  0.22754300  1
  Ir  Ir81  1  0.50000000  0.68493500  0.26960000  1
  Ir  Ir82  1  0.24951300  0.67966100  0.22750400  1
  Ir  Ir83  1  0.25048700  0.88590800  0.26963900  1
  Ir  Ir84  1  0.74951300  0.88590800  0.26963900  1
  Ir  Ir85  1  0.75048700  0.67966100  0.22750400  1
  Ir  Ir86  1  0.00000000  0.06849900  0.28428600  1
  Ir  Ir87  1  0.50000000  0.79032200  0.29014500  1
  Ir  Ir88  1  0.00000000  0.91810500  0.34985500  1
  Ir  Ir89  1  0.50000000  0.76108300  0.34104100  1
  Ir  Ir90  1  0.00000000  0.94734400  0.29895900  1
  Ir  Ir91  1  0.26606200  0.01985400  0.32640900  1
  Ir  Ir92  1  0.23393800  0.68857200  0.31359100  1
  Ir  Ir93  1  0.76606200  0.68857200  0.31359100  1
  Ir  Ir94  1  0.73393800  0.01985400  0.32640900  1
  Ir  Ir95  1  0.50000000  0.45206300  0.29897200  1
  Ir  Ir96  1  0.00000000  0.25636300  0.34102800  1
  Ir  Ir97  1  0.74951300  0.25109000  0.29893300  1
  Ir  Ir98  1  0.75048700  0.45733700  0.34106700  1
  Ir  Ir99  1  0.24951300  0.45733700  0.34106700  1
  Ir  Ir100  1  0.25048700  0.25109000  0.29893300  1
  Ir  Ir101  1  0.50000000  0.63992800  0.35571400  1
  Ir  Ir102  1  0.00000000  0.21889300  0.21871600  1
  Ir  Ir103  1  0.50000000  0.34667600  0.27842700  1
  Ir  Ir104  1  0.00000000  0.18965400  0.26961200  1
  Ir  Ir105  1  0.50000000  0.37591500  0.22753000  1
  Ir  Ir106  1  0.76606200  0.44842600  0.25498000  1
  Ir  Ir107  1  0.73393800  0.11714400  0.24216300  1
  Ir  Ir108  1  0.26606200  0.11714400  0.24216300  1
  Ir  Ir109  1  0.23393800  0.44842600  0.25498000  1
  Ir  Ir110  1  0.00000000  0.02349200  0.37040000  1
  Ir  Ir111  1  0.50000000  0.82779200  0.41245700  1
  Ir  Ir112  1  0.24951300  0.82251800  0.37036100  1
  Ir  Ir113  1  0.25048700  0.02876600  0.41249600  1
  Ir  Ir114  1  0.74951300  0.02876600  0.41249600  1
  Ir  Ir115  1  0.75048700  0.82251800  0.37036100  1
  Ir  Ir116  1  0.00000000  0.21135600  0.42714300  1
  Ir  Ir117  1  0.50000000  0.93317900  0.43300200  1
  Ir  Ir118  1  1.00000000  0.06096200  0.49271200  1
  Ir  Ir119  1  0.50000000  0.90394000  0.48389800  1
  Ir  Ir120  1  0.00000000  0.09020100  0.44181600  1
  Ir  Ir121  1  0.26606200  0.16271200  0.46926600  1
  Ir  Ir122  1  0.23393800  0.83142900  0.45644800  1
  Ir  Ir123  1  0.76606200  0.83142900  0.45644800  1
  Ir  Ir124  1  0.73393800  0.16271200  0.46926600  1
  Ir  Ir125  1  0.50000000  0.59492100  0.44182900  1
  Ir  Ir126  1  1.00000000  0.39922000  0.48388600  1
  Ir  Ir127  1  0.74951300  0.39394700  0.44179000  1
  Ir  Ir128  1  0.75048700  0.60019400  0.48392500  1
  Ir  Ir129  1  0.24951300  0.60019400  0.48392500  1
  Ir  Ir130  1  0.25048700  0.39394700  0.44179000  1
  Ir  Ir131  1  0.50000000  0.78278500  0.49857100  1
  Ir  Ir132  1  0.00000000  0.36175000  0.36157300  1
  Ir  Ir133  1  0.50000000  0.48953300  0.42128400  1
  Ir  Ir134  1  0.00000000  0.33251100  0.41247000  1
  Ir  Ir135  1  0.50000000  0.51877300  0.37038800  1
  Ir  Ir136  1  0.76606200  0.59128300  0.39783700  1
  Ir  Ir137  1  0.73393800  0.26000100  0.38502000  1
  Ir  Ir138  1  0.26606200  0.26000100  0.38502000  1
  Ir  Ir139  1  0.23393800  0.59128300  0.39783700  1
  Ir  Ir140  1  1.00000000  0.16634900  0.51325700  1
  Ir  Ir141  1  0.50000000  0.97064900  0.55531400  1
  Ir  Ir142  1  0.24951300  0.96537500  0.51321800  1
  Ir  Ir143  1  0.25048700  0.17162300  0.55535300  1
  Ir  Ir144  1  0.74951300  0.17162300  0.55535300  1
  Ir  Ir145  1  0.75048700  0.96537500  0.51321800  1
  Ir  Ir146  1  0.00000000  0.35421300  0.57000000  1
  Ir  Ir147  1  0.50000000  0.07603600  0.57585900  1
  Ir  Ir148  1  1.00000000  0.20381900  0.63557000  1
  Ir  Ir149  1  0.50000000  0.04679700  0.62675500  1
  Ir  Ir150  1  0.00000000  0.23305800  0.58467300  1
  Ir  Ir151  1  0.26606200  0.30556900  0.61212300  1
  Ir  Ir152  1  0.23393800  0.97428700  0.59930600  1
  Ir  Ir153  1  0.76606200  0.97428700  0.59930600  1
  Ir  Ir154  1  0.73393800  0.30556900  0.61212300  1
  Ir  Ir155  1  0.50000000  0.73777800  0.58468600  1
  Ir  Ir156  1  0.00000000  0.54207800  0.62674300  1
  Ir  Ir157  1  0.74951300  0.53680400  0.58464700  1
  Ir  Ir158  1  0.75048700  0.74305100  0.62678200  1
  Ir  Ir159  1  0.24951300  0.74305100  0.62678200  1
  Ir  Ir160  1  0.25048700  0.53680400  0.58464700  1
  Ir  Ir161  1  0.50000000  0.92564200  0.64142900  1
  Ir  Ir162  1  0.00000000  0.50460800  0.50443000  1
  Ir  Ir163  1  0.50000000  0.63239100  0.56414100  1
  Ir  Ir164  1  1.00000000  0.47536800  0.55532700  1
  Ir  Ir165  1  0.50000000  0.66163000  0.51324500  1
  Ir  Ir166  1  0.76606200  0.73414000  0.54069400  1
  Ir  Ir167  1  0.73393800  0.40285800  0.52787700  1
  Ir  Ir168  1  0.26606200  0.40285800  0.52787700  1
  Ir  Ir169  1  0.23393800  0.73414000  0.54069400  1
  Ir  Ir170  1  1.00000000  0.30920600  0.65611400  1
  Ir  Ir171  1  0.50000000  0.11350600  0.69817100  1
  Ir  Ir172  1  0.24951300  0.10823200  0.65607500  1
  Ir  Ir173  1  0.25048700  0.31448000  0.69821000  1
  Ir  Ir174  1  0.74951300  0.31448000  0.69821000  1
  Ir  Ir175  1  0.75048700  0.10823200  0.65607500  1
  Ir  Ir176  1  0.00000000  0.49707000  0.71285700  1
  Ir  Ir177  1  0.50000000  0.21889300  0.71871600  1
  Ir  Ir178  1  1.00000000  0.34667600  0.77842700  1
  Ir  Ir179  1  0.50000000  0.18965400  0.76961200  1
  Ir  Ir180  1  0.00000000  0.37591500  0.72753000  1
  Ir  Ir181  1  0.26606200  0.44842600  0.75498000  1
  Ir  Ir182  1  0.23393800  0.11714400  0.74216300  1
  Ir  Ir183  1  0.76606200  0.11714400  0.74216300  1
  Ir  Ir184  1  0.73393800  0.44842600  0.75498000  1
  Ir  Ir185  1  0.50000000  0.88063500  0.72754300  1
  Ir  Ir186  1  0.00000000  0.68493500  0.76960000  1
  Ir  Ir187  1  0.74951300  0.67966100  0.72750400  1
  Ir  Ir188  1  0.75048700  0.88590800  0.76963900  1
  Ir  Ir189  1  0.24951300  0.88590800  0.76963900  1
  Ir  Ir190  1  0.25048700  0.67966100  0.72750400  1
  Ir  Ir191  1  0.00000000  0.64746500  0.64728800  1
  Ir  Ir192  1  0.50000000  0.77524800  0.70699800  1
  Ir  Ir193  1  0.00000000  0.61822600  0.69818400  1
  Ir  Ir194  1  0.50000000  0.80448700  0.65610200  1
  Ir  Ir195  1  0.76606200  0.87699700  0.68355200  1
  Ir  Ir196  1  0.73393800  0.54571500  0.67073400  1
  Ir  Ir197  1  0.26606200  0.54571500  0.67073400  1
  Ir  Ir198  1  0.23393800  0.87699700  0.68355200  1
