# generated using pymatgen
data_Mg15Zn79
_symmetry_space_group_name_H-M   'P 1'
_cell_length_a   4.98183600
_cell_length_b   24.97062623
_cell_length_c   44.22797300
_cell_angle_alpha   91.77467371
_cell_angle_beta   90.00000000
_cell_angle_gamma   90.00000000
_symmetry_Int_Tables_number   1
_chemical_formula_structural   Mg15Zn79
_chemical_formula_sum   'Mg30 Zn158'
_cell_volume   5499.30156751
_cell_formula_units_Z   2
loop_
 _symmetry_equiv_pos_site_id
 _symmetry_equiv_pos_as_xyz
  1  'x, y, z'
loop_
 _atom_site_type_symbol
 _atom_site_label
 _atom_site_symmetry_multiplicity
 _atom_site_fract_x
 _atom_site_fract_y
 _atom_site_fract_z
 _atom_site_occupancy
  Mg  Mg0  1  0.50000000  0.89744500  0.26931900  1
  Mg  Mg1  1  0.00000000  0.92636300  0.31401500  1
  Mg  Mg2  1  0.00000000  0.54030200  0.34074700  1
  Mg  Mg3  1  0.50000000  0.28350600  0.24258600  1
  Mg  Mg4  1  1.00000000  0.62594100  0.28802100  1
  Mg  Mg5  1  0.50000000  0.19786600  0.29531200  1
  Mg  Mg6  1  0.50000000  0.18315900  0.41217600  1
  Mg  Mg7  1  1.00000000  0.21207700  0.45687200  1
  Mg  Mg8  1  0.50000000  0.26879900  0.35945000  1
  Mg  Mg9  1  1.00000000  0.84072300  0.36674000  1
  Mg  Mg10  1  0.00000000  0.82601600  0.48360400  1
  Mg  Mg11  1  0.50000000  0.56922000  0.38544300  1
  Mg  Mg12  1  0.00000000  0.91165600  0.43087900  1
  Mg  Mg13  1  0.50000000  0.48358000  0.43816900  1
  Mg  Mg14  1  0.50000000  0.46887300  0.55503300  1
  Mg  Mg15  1  0.00000000  0.49779100  0.59972900  1
  Mg  Mg16  1  0.50000000  0.55451300  0.50230700  1
  Mg  Mg17  1  1.00000000  0.12643700  0.50959800  1
  Mg  Mg18  1  1.00000000  0.11173000  0.62646200  1
  Mg  Mg19  1  0.50000000  0.85493400  0.52830000  1
  Mg  Mg20  1  1.00000000  0.19737000  0.57373600  1
  Mg  Mg21  1  0.50000000  0.76929500  0.58102600  1
  Mg  Mg22  1  0.50000000  0.75458800  0.69789000  1
  Mg  Mg23  1  1.00000000  0.78350600  0.74258600  1
  Mg  Mg24  1  0.50000000  0.84022700  0.64516400  1
  Mg  Mg25  1  1.00000000  0.41215200  0.65245500  1
  Mg  Mg26  1  1.00000000  0.39744500  0.76931900  1
  Mg  Mg27  1  0.50000000  0.14064800  0.67115800  1
  Mg  Mg28  1  1.00000000  0.48308400  0.71659300  1
  Mg  Mg29  1  0.50000000  0.05500900  0.72388300  1
  Zn  Zn30  1  0.50000000  0.09047500  0.25595200  1
  Zn  Zn31  1  0.50000000  0.70368800  0.29593200  1
  Zn  Zn32  1  0.50000000  0.77851100  0.24503100  1
  Zn  Zn33  1  0.50000000  0.88589700  0.34005300  1
  Zn  Zn34  1  0.00000000  0.93791100  0.24328100  1
  Zn  Zn35  1  0.25265100  0.14881500  0.34922000  1
  Zn  Zn36  1  0.24714400  0.00850100  0.27688600  1
  Zn  Zn37  1  1.00000000  0.12011900  0.28740100  1
  Zn  Zn38  1  1.00000000  0.83640800  0.25507100  1
  Zn  Zn39  1  0.74714400  0.81530700  0.30644800  1
  Zn  Zn40  1  0.75285600  0.00850100  0.27688600  1
  Zn  Zn41  1  0.25285600  0.81530700  0.30644800  1
  Zn  Zn42  1  0.75265100  0.67499200  0.23411300  1
  Zn  Zn43  1  0.00000000  0.04529700  0.33830200  1
  Zn  Zn44  1  0.74734900  0.14881500  0.34922000  1
  Zn  Zn45  1  0.24734900  0.67499200  0.23411300  1
  Zn  Zn46  1  0.00000000  0.23333200  0.32738100  1
  Zn  Zn47  1  0.50000000  0.08483600  0.31293700  1
  Zn  Zn48  1  1.00000000  0.73897100  0.27039600  1
  Zn  Zn49  1  0.50000000  0.98739900  0.32826300  1
  Zn  Zn50  1  1.00000000  0.73333200  0.32738100  1
  Zn  Zn51  1  1.00000000  0.42136800  0.31646000  1
  Zn  Zn52  1  0.00000000  0.24304000  0.26862400  1
  Zn  Zn53  1  0.50000000  0.58076800  0.31470900  1
  Zn  Zn54  1  0.75265100  0.50595800  0.27779200  1
  Zn  Zn55  1  0.74714400  0.65135800  0.34831400  1
  Zn  Zn56  1  0.50000000  0.47926500  0.32649900  1
  Zn  Zn57  1  0.24714400  0.17245000  0.23501900  1
  Zn  Zn58  1  0.25285600  0.65135800  0.34831400  1
  Zn  Zn59  1  0.75285600  0.17245000  0.23501900  1
  Zn  Zn60  1  0.25265100  0.31784900  0.30554200  1
  Zn  Zn61  1  0.50000000  0.40244000  0.26687400  1
  Zn  Zn62  1  0.24734900  0.50595800  0.27779200  1
  Zn  Zn63  1  0.74734900  0.31784900  0.30554200  1
  Zn  Zn64  1  0.50000000  0.59047500  0.25595200  1
  Zn  Zn65  1  1.00000000  0.44197900  0.24150900  1
  Zn  Zn66  1  0.50000000  0.38182800  0.34182500  1
  Zn  Zn67  1  1.00000000  0.34454200  0.25683400  1
  Zn  Zn68  1  0.50000000  0.37618900  0.39881000  1
  Zn  Zn69  1  0.50000000  0.98940300  0.43878900  1
  Zn  Zn70  1  0.50000000  0.06422500  0.38788800  1
  Zn  Zn71  1  0.50000000  0.17161100  0.48291000  1
  Zn  Zn72  1  0.00000000  0.22362500  0.38613800  1
  Zn  Zn73  1  0.25265100  0.43452900  0.49207700  1
  Zn  Zn74  1  0.24714400  0.29421500  0.41974300  1
  Zn  Zn75  1  0.00000000  0.40583300  0.43025800  1
  Zn  Zn76  1  0.00000000  0.12212200  0.39792800  1
  Zn  Zn77  1  0.74714400  0.10102100  0.44930500  1
  Zn  Zn78  1  0.75285600  0.29421500  0.41974300  1
  Zn  Zn79  1  0.25285600  0.10102100  0.44930500  1
  Zn  Zn80  1  0.75265100  0.96070700  0.37697000  1
  Zn  Zn81  1  0.00000000  0.33101100  0.48115900  1
  Zn  Zn82  1  0.74734900  0.43452900  0.49207700  1
  Zn  Zn83  1  0.24734900  0.96070700  0.37697000  1
  Zn  Zn84  1  0.00000000  0.51904700  0.47023800  1
  Zn  Zn85  1  0.50000000  0.37055000  0.45579400  1
  Zn  Zn86  1  0.00000000  0.02468600  0.41325300  1
  Zn  Zn87  1  0.50000000  0.27311400  0.47112000  1
  Zn  Zn88  1  0.00000000  0.01904700  0.47023800  1
  Zn  Zn89  1  0.00000000  0.34654500  0.36736100  1
  Zn  Zn90  1  1.00000000  0.70708200  0.45931700  1
  Zn  Zn91  1  1.00000000  0.52875400  0.41148100  1
  Zn  Zn92  1  0.50000000  0.86648200  0.45756600  1
  Zn  Zn93  1  0.75265100  0.79167200  0.42064900  1
  Zn  Zn94  1  0.74714400  0.93707200  0.49117100  1
  Zn  Zn95  1  0.50000000  0.76297600  0.35883000  1
  Zn  Zn96  1  0.50000000  0.76497900  0.46935600  1
  Zn  Zn97  1  0.24714400  0.45816400  0.37787600  1
  Zn  Zn98  1  0.25285600  0.93707200  0.49117100  1
  Zn  Zn99  1  0.75285600  0.45816400  0.37787600  1
  Zn  Zn100  1  0.25265100  0.60356400  0.44839900  1
  Zn  Zn101  1  0.50000000  0.68815400  0.40973100  1
  Zn  Zn102  1  0.24734900  0.79167200  0.42064900  1
  Zn  Zn103  1  0.74734900  0.60356400  0.44839900  1
  Zn  Zn104  1  0.50000000  0.87618900  0.39881000  1
  Zn  Zn105  1  1.00000000  0.72769300  0.38436600  1
  Zn  Zn106  1  0.50000000  0.66754300  0.48468200  1
  Zn  Zn107  1  0.00000000  0.63025700  0.39969100  1
  Zn  Zn108  1  0.50000000  0.66190400  0.54166700  1
  Zn  Zn109  1  0.50000000  0.27511700  0.58164600  1
  Zn  Zn110  1  0.50000000  0.34993900  0.53074500  1
  Zn  Zn111  1  0.50000000  0.45732500  0.62576700  1
  Zn  Zn112  1  1.00000000  0.50933900  0.52899500  1
  Zn  Zn113  1  0.25265100  0.72024400  0.63493500  1
  Zn  Zn114  1  0.24714400  0.57992900  0.56260000  1
  Zn  Zn115  1  1.00000000  0.69154800  0.57311500  1
  Zn  Zn116  1  1.00000000  0.40783600  0.54078500  1
  Zn  Zn117  1  0.74714400  0.38673500  0.59216200  1
  Zn  Zn118  1  0.75285600  0.57992900  0.56260000  1
  Zn  Zn119  1  0.25285600  0.38673500  0.59216200  1
  Zn  Zn120  1  0.75265100  0.24642100  0.51982700  1
  Zn  Zn121  1  1.00000000  0.61672500  0.62401700  1
  Zn  Zn122  1  0.74734900  0.72024400  0.63493500  1
  Zn  Zn123  1  0.24734900  0.24642100  0.51982700  1
  Zn  Zn124  1  1.00000000  0.80476100  0.61309500  1
  Zn  Zn125  1  0.50000000  0.65626500  0.59865200  1
  Zn  Zn126  1  1.00000000  0.31040000  0.55611000  1
  Zn  Zn127  1  0.50000000  0.55882800  0.61397700  1
  Zn  Zn128  1  1.00000000  0.30476100  0.61309500  1
  Zn  Zn129  1  0.00000000  0.63226000  0.51021800  1
  Zn  Zn130  1  0.00000000  0.99279600  0.60217400  1
  Zn  Zn131  1  1.00000000  0.81446800  0.55433800  1
  Zn  Zn132  1  0.50000000  0.15219600  0.60042400  1
  Zn  Zn133  1  0.75265100  0.07738600  0.56350600  1
  Zn  Zn134  1  0.74714400  0.22278600  0.63402800  1
  Zn  Zn135  1  0.50000000  0.04869000  0.50168700  1
  Zn  Zn136  1  0.50000000  0.05069400  0.61221300  1
  Zn  Zn137  1  0.24714400  0.74387800  0.52073300  1
  Zn  Zn138  1  0.25285600  0.22278600  0.63402800  1
  Zn  Zn139  1  0.75285600  0.74387800  0.52073300  1
  Zn  Zn140  1  0.25265100  0.88927800  0.59125600  1
  Zn  Zn141  1  0.50000000  0.97386800  0.55258800  1
  Zn  Zn142  1  0.24734900  0.07738600  0.56350600  1
  Zn  Zn143  1  0.74734900  0.88927800  0.59125600  1
  Zn  Zn144  1  0.50000000  0.16190400  0.54166700  1
  Zn  Zn145  1  1.00000000  0.01340700  0.52722300  1
  Zn  Zn146  1  0.50000000  0.95325700  0.62753900  1
  Zn  Zn147  1  0.00000000  0.91597100  0.54254800  1
  Zn  Zn148  1  0.50000000  0.94761800  0.68452400  1
  Zn  Zn149  1  0.50000000  0.56083100  0.72450400  1
  Zn  Zn150  1  0.50000000  0.63565400  0.67360200  1
  Zn  Zn151  1  0.50000000  0.74304000  0.76862400  1
  Zn  Zn152  1  0.00000000  0.79505400  0.67185200  1
  Zn  Zn153  1  0.25265100  0.00595800  0.77779200  1
  Zn  Zn154  1  0.24714400  0.86564300  0.70545700  1
  Zn  Zn155  1  0.00000000  0.97726200  0.71597300  1
  Zn  Zn156  1  0.00000000  0.69355100  0.68364200  1
  Zn  Zn157  1  0.74714400  0.67245000  0.73501900  1
  Zn  Zn158  1  0.75285600  0.86564300  0.70545700  1
  Zn  Zn159  1  0.25285600  0.67245000  0.73501900  1
  Zn  Zn160  1  0.75265100  0.53213500  0.66268500  1
  Zn  Zn161  1  0.00000000  0.90244000  0.76687400  1
  Zn  Zn162  1  0.74734900  0.00595800  0.77779200  1
  Zn  Zn163  1  0.24734900  0.53213500  0.66268500  1
  Zn  Zn164  1  1.00000000  0.09047500  0.75595200  1
  Zn  Zn165  1  0.50000000  0.94197900  0.74150900  1
  Zn  Zn166  1  1.00000000  0.59611400  0.69896800  1
  Zn  Zn167  1  0.50000000  0.84454200  0.75683400  1
  Zn  Zn168  1  0.00000000  0.59047500  0.75595200  1
  Zn  Zn169  1  0.00000000  0.91797400  0.65307500  1
  Zn  Zn170  1  0.00000000  0.27851100  0.74503100  1
  Zn  Zn171  1  1.00000000  0.10018200  0.69719500  1
  Zn  Zn172  1  0.50000000  0.43791100  0.74328100  1
  Zn  Zn173  1  0.75265100  0.36310100  0.70636300  1
  Zn  Zn174  1  0.74714400  0.50850100  0.77688600  1
  Zn  Zn175  1  0.50000000  0.33440500  0.64454400  1
  Zn  Zn176  1  0.50000000  0.33640800  0.75507100  1
  Zn  Zn177  1  0.24714400  0.02959200  0.66359100  1
  Zn  Zn178  1  0.25285600  0.50850100  0.77688600  1
  Zn  Zn179  1  0.75285600  0.02959200  0.66359100  1
  Zn  Zn180  1  0.25265100  0.17499200  0.73411300  1
  Zn  Zn181  1  0.50000000  0.25958200  0.69544500  1
  Zn  Zn182  1  0.24734900  0.36310100  0.70636300  1
  Zn  Zn183  1  0.74734900  0.17499200  0.73411300  1
  Zn  Zn184  1  0.50000000  0.44761800  0.68452400  1
  Zn  Zn185  1  0.00000000  0.29912200  0.67008000  1
  Zn  Zn186  1  0.50000000  0.23897100  0.77039600  1
  Zn  Zn187  1  1.00000000  0.20168500  0.68540600  1
