# generated using pymatgen
data_Mg13Ir21
_symmetry_space_group_name_H-M   'P 1'
_cell_length_a   5.24707521
_cell_length_b   9.72091511
_cell_length_c   42.67859400
_cell_angle_alpha   83.72935757
_cell_angle_beta   86.47569412
_cell_angle_gamma   74.34252486
_symmetry_Int_Tables_number   1
_chemical_formula_structural   Mg13Ir21
_chemical_formula_sum   'Mg26 Ir42'
_cell_volume   2082.39608329
_cell_formula_units_Z   2
loop_
 _symmetry_equiv_pos_site_id
 _symmetry_equiv_pos_as_xyz
  1  'x, y, z'
loop_
 _atom_site_type_symbol
 _atom_site_label
 _atom_site_symmetry_multiplicity
 _atom_site_fract_x
 _atom_site_fract_y
 _atom_site_fract_z
 _atom_site_occupancy
  Mg  Mg0  1  0.71986400  0.87133900  0.68893200  1
  Mg  Mg1  1  0.28013600  0.78466100  0.65506800  1
  Mg  Mg2  1  0.57770000  0.17217700  0.67242300  1
  Mg  Mg3  1  0.42230000  0.48382300  0.67157700  1
  Mg  Mg4  1  0.97896800  0.33377500  0.70828800  1
  Mg  Mg5  1  0.02103200  0.32222500  0.63571200  1
  Mg  Mg6  1  0.71986400  0.07133900  0.48893200  1
  Mg  Mg7  1  0.28013600  0.98466100  0.45506800  1
  Mg  Mg8  1  0.44543300  0.56047400  0.54866100  1
  Mg  Mg9  1  0.55456700  0.29552600  0.59533900  1
  Mg  Mg10  1  0.70924000  0.02061800  0.56090200  1
  Mg  Mg11  1  0.29076000  0.83538200  0.58309800  1
  Mg  Mg12  1  0.57770000  0.37217700  0.47242300  1
  Mg  Mg13  1  0.42230000  0.68382300  0.47157700  1
  Mg  Mg14  1  0.97896800  0.53377500  0.50828800  1
  Mg  Mg15  1  0.02103200  0.52222500  0.43571200  1
  Mg  Mg16  1  0.71986400  0.27133900  0.28893200  1
  Mg  Mg17  1  0.28013600  0.18466100  0.25506800  1
  Mg  Mg18  1  0.44543300  0.76047400  0.34866100  1
  Mg  Mg19  1  0.55456700  0.49552600  0.39533900  1
  Mg  Mg20  1  0.70924000  0.22061800  0.36090200  1
  Mg  Mg21  1  0.29076000  0.03538200  0.38309800  1
  Mg  Mg22  1  0.57770000  0.57217700  0.27242300  1
  Mg  Mg23  1  0.42230000  0.88382300  0.27157700  1
  Mg  Mg24  1  0.97896800  0.73377500  0.30828800  1
  Mg  Mg25  1  0.02103200  0.72222500  0.23571200  1
  Ir  Ir26  1  0.13112200  0.06009300  0.67766400  1
  Ir  Ir27  1  0.86887800  0.59590700  0.66633600  1
  Ir  Ir28  1  0.08254400  0.61798200  0.71790600  1
  Ir  Ir29  1  0.91745600  0.03801800  0.62609400  1
  Ir  Ir30  1  0.41843100  0.03801800  0.62609400  1
  Ir  Ir31  1  0.58156900  0.61798200  0.71790600  1
  Ir  Ir32  1  0.78403600  0.81132300  0.62060500  1
  Ir  Ir33  1  0.21596400  0.84467700  0.72339500  1
  Ir  Ir34  1  0.82470600  0.08728300  0.73118100  1
  Ir  Ir35  1  0.17529400  0.56871700  0.61281900  1
  Ir  Ir36  1  0.64317100  0.56871700  0.61281900  1
  Ir  Ir37  1  0.35682900  0.08728300  0.73118100  1
  Ir  Ir38  1  0.13112200  0.26009300  0.47766400  1
  Ir  Ir39  1  0.86887800  0.79590700  0.46633600  1
  Ir  Ir40  1  0.08254400  0.81798200  0.51790600  1
  Ir  Ir41  1  0.91745600  0.23801800  0.42609400  1
  Ir  Ir42  1  0.41843100  0.23801800  0.42609400  1
  Ir  Ir43  1  0.58156900  0.81798200  0.51790600  1
  Ir  Ir44  1  1.00000000  0.42800000  0.57200000  1
  Ir  Ir45  1  0.78403600  0.01132300  0.42060500  1
  Ir  Ir46  1  0.21596400  0.04467700  0.52339500  1
  Ir  Ir47  1  0.86417200  0.70628000  0.56537700  1
  Ir  Ir48  1  0.13582800  0.14972000  0.57862300  1
  Ir  Ir49  1  0.82470600  0.28728300  0.53118100  1
  Ir  Ir50  1  0.17529400  0.76871700  0.41281900  1
  Ir  Ir51  1  0.64317100  0.76871700  0.41281900  1
  Ir  Ir52  1  0.35682900  0.28728300  0.53118100  1
  Ir  Ir53  1  0.13112200  0.46009300  0.27766400  1
  Ir  Ir54  1  0.86887800  0.99590700  0.26633600  1
  Ir  Ir55  1  0.08254400  0.01798200  0.31790600  1
  Ir  Ir56  1  0.91745600  0.43801800  0.22609400  1
  Ir  Ir57  1  0.41843100  0.43801800  0.22609400  1
  Ir  Ir58  1  0.58156900  0.01798200  0.31790600  1
  Ir  Ir59  1  0.00000000  0.62800000  0.37200000  1
  Ir  Ir60  1  0.78403600  0.21132300  0.22060500  1
  Ir  Ir61  1  0.21596400  0.24467700  0.32339500  1
  Ir  Ir62  1  0.86417200  0.90628000  0.36537700  1
  Ir  Ir63  1  0.13582800  0.34972000  0.37862300  1
  Ir  Ir64  1  0.82470600  0.48728300  0.33118100  1
  Ir  Ir65  1  0.17529400  0.96871700  0.21281900  1
  Ir  Ir66  1  0.64317100  0.96871700  0.21281900  1
  Ir  Ir67  1  0.35682900  0.48728300  0.33118100  1
