# generated using pymatgen
data_Mg7Sc16
_symmetry_space_group_name_H-M   'P 1'
_cell_length_a   5.16406100
_cell_length_b   8.41162256
_cell_length_c   42.73576700
_cell_angle_alpha   89.61839643
_cell_angle_beta   90.00000000
_cell_angle_gamma   90.00000000
_symmetry_Int_Tables_number   1
_chemical_formula_structural   Mg7Sc16
_chemical_formula_sum   'Mg14 Sc32'
_cell_volume   1856.32071650
_cell_formula_units_Z   2
loop_
 _symmetry_equiv_pos_site_id
 _symmetry_equiv_pos_as_xyz
  1  'x, y, z'
loop_
 _atom_site_type_symbol
 _atom_site_label
 _atom_site_symmetry_multiplicity
 _atom_site_fract_x
 _atom_site_fract_y
 _atom_site_fract_z
 _atom_site_occupancy
  Mg  Mg0  1  0.75000000  0.00837800  0.74839000  1
  Mg  Mg1  1  0.25000000  0.24838500  0.73879000  1
  Mg  Mg2  1  0.75000000  0.93145500  0.67146700  1
  Mg  Mg3  1  0.25000000  0.17146200  0.66186700  1
  Mg  Mg4  1  0.75000000  0.85453200  0.59454400  1
  Mg  Mg5  1  0.25000000  0.09453900  0.58494300  1
  Mg  Mg6  1  0.75000000  0.77760900  0.51762100  1
  Mg  Mg7  1  0.25000000  0.01761600  0.50802000  1
  Mg  Mg8  1  0.75000000  0.70068500  0.44069800  1
  Mg  Mg9  1  0.25000000  0.94069300  0.43109700  1
  Mg  Mg10  1  0.75000000  0.62376200  0.36377500  1
  Mg  Mg11  1  0.25000000  0.86377000  0.35417400  1
  Mg  Mg12  1  0.75000000  0.54683900  0.28685100  1
  Mg  Mg13  1  0.25000000  0.78684600  0.27725100  1
  Sc  Sc14  1  0.75000000  0.36376300  0.77417400  1
  Sc  Sc15  1  0.75000000  0.73073200  0.79949600  1
  Sc  Sc16  1  0.25000000  0.96992200  0.78992800  1
  Sc  Sc17  1  0.25000000  0.60295400  0.76460700  1
  Sc  Sc18  1  0.75000000  0.28684000  0.69725100  1
  Sc  Sc19  1  0.75000000  0.65380900  0.72257300  1
  Sc  Sc20  1  0.25000000  0.89299900  0.71300500  1
  Sc  Sc21  1  0.25000000  0.52603100  0.68768400  1
  Sc  Sc22  1  0.75000000  0.20991700  0.62032800  1
  Sc  Sc23  1  0.75000000  0.57688600  0.64565000  1
  Sc  Sc24  1  0.25000000  0.81607600  0.63608200  1
  Sc  Sc25  1  0.25000000  0.44910800  0.61076100  1
  Sc  Sc26  1  0.75000000  0.13299400  0.54340500  1
  Sc  Sc27  1  0.75000000  0.49996300  0.56872600  1
  Sc  Sc28  1  0.25000000  0.73915300  0.55915900  1
  Sc  Sc29  1  0.25000000  0.37218500  0.53383800  1
  Sc  Sc30  1  0.75000000  0.05607100  0.46648200  1
  Sc  Sc31  1  0.75000000  0.42304000  0.49180300  1
  Sc  Sc32  1  0.25000000  0.66223000  0.48223600  1
  Sc  Sc33  1  0.25000000  0.29526100  0.45691500  1
  Sc  Sc34  1  0.75000000  0.97914800  0.38955900  1
  Sc  Sc35  1  0.75000000  0.34611700  0.41488000  1
  Sc  Sc36  1  0.25000000  0.58530700  0.40531300  1
  Sc  Sc37  1  0.25000000  0.21833800  0.37999100  1
  Sc  Sc38  1  0.75000000  0.90222500  0.31263600  1
  Sc  Sc39  1  0.75000000  0.26919400  0.33795700  1
  Sc  Sc40  1  0.25000000  0.50838400  0.32839000  1
  Sc  Sc41  1  0.25000000  0.14141500  0.30306800  1
  Sc  Sc42  1  0.75000000  0.82530200  0.23571300  1
  Sc  Sc43  1  0.75000000  0.19227000  0.26103400  1
  Sc  Sc44  1  0.25000000  0.43146100  0.25146700  1
  Sc  Sc45  1  0.25000000  0.06449200  0.22614500  1
