# generated using pymatgen
data_Tb10Mg19
_symmetry_space_group_name_H-M   'P 1'
_cell_length_a   6.08248400
_cell_length_b   9.78730500
_cell_length_c   42.14068500
_cell_angle_alpha   90.00000000
_cell_angle_beta   90.00000000
_cell_angle_gamma   90.00000000
_symmetry_Int_Tables_number   1
_chemical_formula_structural   Tb10Mg19
_chemical_formula_sum   'Tb20 Mg38'
_cell_volume   2508.68243123
_cell_formula_units_Z   2
loop_
 _symmetry_equiv_pos_site_id
 _symmetry_equiv_pos_as_xyz
  1  'x, y, z'
loop_
 _atom_site_type_symbol
 _atom_site_label
 _atom_site_symmetry_multiplicity
 _atom_site_fract_x
 _atom_site_fract_y
 _atom_site_fract_z
 _atom_site_occupancy
  Tb  Tb0  1  0.04284100  0.56262100  0.26041700  1
  Tb  Tb1  1  0.54284100  0.06262100  0.21875000  1
  Tb  Tb2  1  0.54284100  0.43737900  0.21875000  1
  Tb  Tb3  1  0.04284100  0.93737900  0.26041700  1
  Tb  Tb4  1  0.54284100  0.56262100  0.38541700  1
  Tb  Tb5  1  0.04284100  0.06262100  0.34375000  1
  Tb  Tb6  1  0.04284100  0.43737900  0.34375000  1
  Tb  Tb7  1  0.54284100  0.93737900  0.38541700  1
  Tb  Tb8  1  0.04284100  0.56262100  0.51041700  1
  Tb  Tb9  1  0.54284100  0.06262100  0.46875000  1
  Tb  Tb10  1  0.54284100  0.43737900  0.46875000  1
  Tb  Tb11  1  0.04284100  0.93737900  0.51041700  1
  Tb  Tb12  1  0.54284100  0.56262100  0.63541700  1
  Tb  Tb13  1  0.04284100  0.06262100  0.59375000  1
  Tb  Tb14  1  0.04284100  0.43737900  0.59375000  1
  Tb  Tb15  1  0.54284100  0.93737900  0.63541700  1
  Tb  Tb16  1  0.04284100  0.56262100  0.76041700  1
  Tb  Tb17  1  0.54284100  0.06262100  0.71875000  1
  Tb  Tb18  1  0.54284100  0.43737900  0.71875000  1
  Tb  Tb19  1  0.04284100  0.93737900  0.76041700  1
  Mg  Mg20  1  0.54284100  0.50000000  0.30208300  1
  Mg  Mg21  1  0.54284100  0.00000000  0.30208300  1
  Mg  Mg22  1  0.54284100  0.75000000  0.25924200  1
  Mg  Mg23  1  0.28579500  0.25000000  0.28066300  1
  Mg  Mg24  1  0.79988700  0.25000000  0.28066300  1
  Mg  Mg25  1  0.78579500  0.75000000  0.19850400  1
  Mg  Mg26  1  0.29988700  0.75000000  0.19850400  1
  Mg  Mg27  1  0.04284100  0.25000000  0.21992400  1
  Mg  Mg28  1  0.04284100  0.50000000  0.42708300  1
  Mg  Mg29  1  0.04284100  0.00000000  0.42708300  1
  Mg  Mg30  1  0.04284100  0.75000000  0.38424200  1
  Mg  Mg31  1  0.78579500  0.25000000  0.40566300  1
  Mg  Mg32  1  0.29988700  0.25000000  0.40566300  1
  Mg  Mg33  1  0.28579500  0.75000000  0.32350400  1
  Mg  Mg34  1  0.79988700  0.75000000  0.32350400  1
  Mg  Mg35  1  0.54284100  0.25000000  0.34492400  1
  Mg  Mg36  1  0.54284100  0.50000000  0.55208300  1
  Mg  Mg37  1  0.54284100  0.00000000  0.55208300  1
  Mg  Mg38  1  0.54284100  0.75000000  0.50924200  1
  Mg  Mg39  1  0.28579500  0.25000000  0.53066300  1
  Mg  Mg40  1  0.79988700  0.25000000  0.53066300  1
  Mg  Mg41  1  0.78579500  0.75000000  0.44850400  1
  Mg  Mg42  1  0.29988700  0.75000000  0.44850400  1
  Mg  Mg43  1  0.04284100  0.25000000  0.46992400  1
  Mg  Mg44  1  0.04284100  0.50000000  0.67708300  1
  Mg  Mg45  1  0.04284100  0.00000000  0.67708300  1
  Mg  Mg46  1  0.04284100  0.75000000  0.63424200  1
  Mg  Mg47  1  0.78579500  0.25000000  0.65566300  1
  Mg  Mg48  1  0.29988700  0.25000000  0.65566300  1
  Mg  Mg49  1  0.28579500  0.75000000  0.57350400  1
  Mg  Mg50  1  0.79988700  0.75000000  0.57350400  1
  Mg  Mg51  1  0.54284100  0.25000000  0.59492400  1
  Mg  Mg52  1  0.54284100  0.75000000  0.75924200  1
  Mg  Mg53  1  0.28579500  0.25000000  0.78066300  1
  Mg  Mg54  1  0.79988700  0.25000000  0.78066300  1
  Mg  Mg55  1  0.78579500  0.75000000  0.69850400  1
  Mg  Mg56  1  0.29988700  0.75000000  0.69850400  1
  Mg  Mg57  1  0.04284100  0.25000000  0.71992400  1
