# generated using pymatgen
data_Ce2Mg
_symmetry_space_group_name_H-M   'P 1'
_cell_length_a   5.24483100
_cell_length_b   9.39222165
_cell_length_c   43.65120100
_cell_angle_alpha   92.56125256
_cell_angle_beta   90.00000000
_cell_angle_gamma   90.00000000
_symmetry_Int_Tables_number   1
_chemical_formula_structural   Ce2Mg
_chemical_formula_sum   'Ce36 Mg18'
_cell_volume   2148.13692483
_cell_formula_units_Z   18
loop_
 _symmetry_equiv_pos_site_id
 _symmetry_equiv_pos_as_xyz
  1  'x, y, z'
loop_
 _atom_site_type_symbol
 _atom_site_label
 _atom_site_symmetry_multiplicity
 _atom_site_fract_x
 _atom_site_fract_y
 _atom_site_fract_z
 _atom_site_occupancy
  Ce  Ce0  1  0.25000000  0.07170300  0.81215900  1
  Ce  Ce1  1  0.25000000  0.35837400  0.76450500  1
  Ce  Ce2  1  0.75000000  0.21305400  0.80692400  1
  Ce  Ce3  1  0.75000000  0.49972500  0.75926900  1
  Ce  Ce4  1  0.25000000  0.00027500  0.74073100  1
  Ce  Ce5  1  0.25000000  0.28694600  0.69307600  1
  Ce  Ce6  1  0.75000000  0.14162600  0.73549500  1
  Ce  Ce7  1  0.75000000  0.42829700  0.68784100  1
  Ce  Ce8  1  0.25000000  0.92884600  0.66930200  1
  Ce  Ce9  1  0.25000000  0.21551700  0.62164800  1
  Ce  Ce10  1  0.75000000  0.07019700  0.66406700  1
  Ce  Ce11  1  0.75000000  0.35686800  0.61641200  1
  Ce  Ce12  1  0.25000000  0.85741700  0.59787300  1
  Ce  Ce13  1  0.25000000  0.14408900  0.55021900  1
  Ce  Ce14  1  0.75000000  0.99876800  0.59263800  1
  Ce  Ce15  1  0.75000000  0.28544000  0.54498400  1
  Ce  Ce16  1  0.25000000  0.78598900  0.52644500  1
  Ce  Ce17  1  0.25000000  0.07266000  0.47879000  1
  Ce  Ce18  1  0.75000000  0.92734000  0.52121000  1
  Ce  Ce19  1  0.75000000  0.21401100  0.47355500  1
  Ce  Ce20  1  0.25000000  0.71456000  0.45501600  1
  Ce  Ce21  1  0.25000000  0.00123200  0.40736200  1
  Ce  Ce22  1  0.75000000  0.85591100  0.44978100  1
  Ce  Ce23  1  0.75000000  0.14258300  0.40212700  1
  Ce  Ce24  1  0.25000000  0.64313200  0.38358800  1
  Ce  Ce25  1  0.25000000  0.92980300  0.33593300  1
  Ce  Ce26  1  0.75000000  0.78448300  0.37835200  1
  Ce  Ce27  1  0.75000000  0.07115400  0.33069800  1
  Ce  Ce28  1  0.25000000  0.57170300  0.31215900  1
  Ce  Ce29  1  0.25000000  0.85837400  0.26450500  1
  Ce  Ce30  1  0.75000000  0.71305400  0.30692400  1
  Ce  Ce31  1  0.75000000  0.99972500  0.25926900  1
  Ce  Ce32  1  0.25000000  0.50027500  0.24073100  1
  Ce  Ce33  1  0.25000000  0.78694600  0.19307600  1
  Ce  Ce34  1  0.75000000  0.64162600  0.23549500  1
  Ce  Ce35  1  0.75000000  0.92829700  0.18784100  1
  Mg  Mg36  1  0.25000000  0.70671400  0.78864000  1
  Mg  Mg37  1  0.75000000  0.86471400  0.78278800  1
  Mg  Mg38  1  0.25000000  0.63528600  0.71721200  1
  Mg  Mg39  1  0.75000000  0.79328600  0.71136000  1
  Mg  Mg40  1  0.25000000  0.56385700  0.64578300  1
  Mg  Mg41  1  0.75000000  0.72185700  0.63993100  1
  Mg  Mg42  1  0.25000000  0.49242900  0.57435400  1
  Mg  Mg43  1  0.75000000  0.65042900  0.56850300  1
  Mg  Mg44  1  0.25000000  0.42100000  0.50292600  1
  Mg  Mg45  1  0.75000000  0.57900000  0.49707400  1
  Mg  Mg46  1  0.25000000  0.34957100  0.43149700  1
  Mg  Mg47  1  0.75000000  0.50757100  0.42564600  1
  Mg  Mg48  1  0.25000000  0.27814300  0.36006900  1
  Mg  Mg49  1  0.75000000  0.43614300  0.35421700  1
  Mg  Mg50  1  0.25000000  0.20671400  0.28864000  1
  Mg  Mg51  1  0.75000000  0.36471400  0.28278800  1
  Mg  Mg52  1  0.25000000  0.13528600  0.21721200  1
  Mg  Mg53  1  0.75000000  0.29328600  0.21136000  1
