# generated using pymatgen
data_Mg7B46
_symmetry_space_group_name_H-M   'P 1'
_cell_length_a   5.97250318
_cell_length_b   7.26364858
_cell_length_c   45.01062000
_cell_angle_alpha   86.50256948
_cell_angle_beta   86.19588580
_cell_angle_gamma   65.72461627
_symmetry_Int_Tables_number   1
_chemical_formula_structural   Mg7B46
_chemical_formula_sum   'Mg14 B92'
_cell_volume   1774.86073170
_cell_formula_units_Z   2
loop_
 _symmetry_equiv_pos_site_id
 _symmetry_equiv_pos_as_xyz
  1  'x, y, z'
loop_
 _atom_site_type_symbol
 _atom_site_label
 _atom_site_symmetry_multiplicity
 _atom_site_fract_x
 _atom_site_fract_y
 _atom_site_fract_z
 _atom_site_occupancy
  Mg  Mg0  1  0.36759400  0.09963400  0.66517900  1
  Mg  Mg1  1  0.86759400  0.09963400  0.66517900  1
  Mg  Mg2  1  0.79616500  0.38534800  0.52232100  1
  Mg  Mg3  1  0.29616500  0.38534800  0.52232100  1
  Mg  Mg4  1  0.28274200  0.82438600  0.61012900  1
  Mg  Mg5  1  0.88101700  0.66059600  0.57737100  1
  Mg  Mg6  1  0.22473700  0.67106200  0.37946400  1
  Mg  Mg7  1  0.72473700  0.67106200  0.37946400  1
  Mg  Mg8  1  0.71131400  0.11010100  0.46727200  1
  Mg  Mg9  1  0.30958800  0.94631000  0.43451400  1
  Mg  Mg10  1  0.65330800  0.95677700  0.23660700  1
  Mg  Mg11  1  0.15330800  0.95677700  0.23660700  1
  Mg  Mg12  1  0.13988500  0.39581500  0.32441500  1
  Mg  Mg13  1  0.73816000  0.23202400  0.29165700  1
  B  B14  1  0.74499200  0.83140200  0.67861300  1
  B  B15  1  0.23791000  0.86260800  0.66157300  1
  B  B16  1  0.55734000  0.73165000  0.66044800  1
  B  B17  1  0.05056200  0.73165000  0.66044800  1
  B  B18  1  0.68462600  0.46761700  0.66990900  1
  B  B19  1  0.17784800  0.46761700  0.66990900  1
  B  B20  1  0.49727800  0.33666000  0.66878500  1
  B  B21  1  0.99019500  0.36786600  0.65174400  1
  B  B22  1  0.11276900  0.14417500  0.63028700  1
  B  B23  1  0.36057900  0.17436200  0.61125800  1
  B  B24  1  0.85380100  0.17436200  0.61125800  1
  B  B25  1  0.61042800  0.22234300  0.55680200  1
  B  B26  1  0.68726300  0.01147400  0.61400000  1
  B  B27  1  0.53272600  0.04393500  0.57949700  1
  B  B28  1  0.84384200  0.04393500  0.57949700  1
  B  B29  1  0.17356400  0.11711700  0.53575600  1
  B  B30  1  0.66648100  0.14832200  0.51871500  1
  B  B31  1  0.78311200  0.79581400  0.63796200  1
  B  B32  1  0.98591100  0.01736500  0.51759100  1
  B  B33  1  0.47913300  0.01736500  0.51759100  1
  B  B34  1  0.10694000  0.92024500  0.55475900  1
  B  B35  1  0.41805600  0.92024500  0.55475900  1
  B  B36  1  0.74570300  0.56473700  0.63274100  1
  B  B37  1  0.05681900  0.56473700  0.63274100  1
  B  B38  1  0.11319700  0.75333200  0.52705200  1
  B  B39  1  0.60641900  0.75333200  0.52705200  1
  B  B40  1  0.38064700  0.68916800  0.54953800  1
  B  B41  1  0.92584900  0.62237400  0.52592700  1
  B  B42  1  0.41876700  0.65358000  0.50888700  1
  B  B43  1  0.31991700  0.44104700  0.60800300  1
  B  B44  1  0.63103300  0.44104700  0.60800300  1
  B  B45  1  0.47649600  0.47350800  0.57350000  1
  B  B46  1  0.55333100  0.26263900  0.63069800  1
  B  B47  1  0.30995800  0.31062000  0.57624200  1
  B  B48  1  0.80318000  0.31062000  0.57624200  1
  B  B49  1  0.05099000  0.34080700  0.55721300  1
  B  B50  1  0.54134000  0.42988900  0.48743000  1
  B  B51  1  0.78915000  0.46007700  0.46840100  1
  B  B52  1  0.28237200  0.46007700  0.46840100  1
  B  B53  1  0.03899900  0.50805700  0.41394500  1
  B  B54  1  0.11583500  0.29718800  0.47114200  1
  B  B55  1  0.96129700  0.32964900  0.43664000  1
  B  B56  1  0.27241400  0.32964900  0.43664000  1
  B  B57  1  0.60213500  0.40283100  0.39289900  1
  B  B58  1  0.09505300  0.43403600  0.37585800  1
  B  B59  1  0.21168300  0.08152900  0.49510500  1
  B  B60  1  0.41448300  0.30307900  0.37473400  1
  B  B61  1  0.90770500  0.30307900  0.37473400  1
  B  B62  1  0.53551100  0.20595900  0.41190200  1
  B  B63  1  0.84662800  0.20595900  0.41190200  1
  B  B64  1  0.17427400  0.85045100  0.48988400  1
  B  B65  1  0.48539100  0.85045100  0.48988400  1
  B  B66  1  0.54176900  0.03904600  0.38419500  1
  B  B67  1  0.03499100  0.03904600  0.38419500  1
  B  B68  1  0.80921800  0.97488200  0.40668100  1
  B  B69  1  0.35442100  0.90808900  0.38307000  1
  B  B70  1  0.84733800  0.93929400  0.36602900  1
  B  B71  1  0.74848800  0.72676100  0.46514600  1
  B  B72  1  0.05960500  0.72676100  0.46514600  1
  B  B73  1  0.90506700  0.75922200  0.43064300  1
  B  B74  1  0.98190300  0.54835300  0.48784100  1
  B  B75  1  0.73853000  0.59633400  0.43338500  1
  B  B76  1  0.23175200  0.59633400  0.43338500  1
  B  B77  1  0.47956100  0.62652200  0.41435500  1
  B  B78  1  0.96991200  0.71560300  0.34457300  1
  B  B79  1  0.21772200  0.74579100  0.32554400  1
  B  B80  1  0.71094400  0.74579100  0.32554400  1
  B  B81  1  0.46757000  0.79377200  0.27108700  1
  B  B82  1  0.54440600  0.58290300  0.32828500  1
  B  B83  1  0.38986900  0.61536400  0.29378300  1
  B  B84  1  0.70098500  0.61536400  0.29378300  1
  B  B85  1  0.03070600  0.68854500  0.25004200  1
  B  B86  1  0.52362400  0.71975000  0.23300100  1
  B  B87  1  0.64025500  0.36724300  0.35224700  1
  B  B88  1  0.84305400  0.58879300  0.23187700  1
  B  B89  1  0.33627600  0.58879300  0.23187700  1
  B  B90  1  0.96408300  0.49167400  0.26904500  1
  B  B91  1  0.27519900  0.49167400  0.26904500  1
  B  B92  1  0.60284500  0.13616600  0.34702700  1
  B  B93  1  0.91396200  0.13616600  0.34702700  1
  B  B94  1  0.97034000  0.32476000  0.24133800  1
  B  B95  1  0.46356200  0.32476000  0.24133800  1
  B  B96  1  0.23779000  0.26059600  0.26382400  1
  B  B97  1  0.78299200  0.19380300  0.24021300  1
  B  B98  1  0.27591000  0.22500800  0.22317200  1
  B  B99  1  0.17705900  0.01247600  0.32228900  1
  B  B100  1  0.48817600  0.01247600  0.32228900  1
  B  B101  1  0.33363900  0.04493700  0.28778600  1
  B  B102  1  0.41047400  0.83406700  0.34498400  1
  B  B103  1  0.16710100  0.88204800  0.29052800  1
  B  B104  1  0.66032300  0.88204800  0.29052800  1
  B  B105  1  0.90813300  0.91223600  0.27149800  1
