# generated using pymatgen
data_Tb22Mg45
_symmetry_space_group_name_H-M   'P 1'
_cell_length_a   6.08248400
_cell_length_b   11.52336530
_cell_length_c   46.46507000
_cell_angle_alpha   93.25447367
_cell_angle_beta   90.00000000
_cell_angle_gamma   74.69723465
_symmetry_Int_Tables_number   1
_chemical_formula_structural   Tb22Mg45
_chemical_formula_sum   'Tb22 Mg45'
_cell_volume   3135.85303789
_cell_formula_units_Z   1
loop_
 _symmetry_equiv_pos_site_id
 _symmetry_equiv_pos_as_xyz
  1  'x, y, z'
loop_
 _atom_site_type_symbol
 _atom_site_label
 _atom_site_symmetry_multiplicity
 _atom_site_fract_x
 _atom_site_fract_y
 _atom_site_fract_z
 _atom_site_occupancy
  Tb  Tb0  1  0.96893000  0.38042000  0.29376200  1
  Tb  Tb1  1  0.48569400  0.34689200  0.24790500  1
  Tb  Tb2  1  0.56893000  0.18042000  0.39376200  1
  Tb  Tb3  1  0.23559700  0.84708600  0.31042900  1
  Tb  Tb4  1  0.08569400  0.14689200  0.34790500  1
  Tb  Tb5  1  0.81902700  0.68022600  0.33123800  1
  Tb  Tb6  1  0.16893000  0.98042000  0.49376200  1
  Tb  Tb7  1  0.83559700  0.64708600  0.41042900  1
  Tb  Tb8  1  0.68569400  0.94689200  0.44790500  1
  Tb  Tb9  1  0.41902700  0.48022600  0.43123800  1
  Tb  Tb10  1  0.76893000  0.78042000  0.59376200  1
  Tb  Tb11  1  0.43559700  0.44708600  0.51042900  1
  Tb  Tb12  1  0.28569400  0.74689200  0.54790500  1
  Tb  Tb13  1  0.01902700  0.28022600  0.53123800  1
  Tb  Tb14  1  0.36893000  0.58042000  0.69376200  1
  Tb  Tb15  1  0.03559700  0.24708600  0.61042900  1
  Tb  Tb16  1  0.88569400  0.54689200  0.64790500  1
  Tb  Tb17  1  0.61902700  0.08022600  0.63123800  1
  Tb  Tb18  1  0.96893000  0.38042000  0.79376200  1
  Tb  Tb19  1  0.63559700  0.04708600  0.71042900  1
  Tb  Tb20  1  0.48569400  0.34689200  0.74790500  1
  Tb  Tb21  1  0.21902700  0.88022600  0.73123800  1
  Mg  Mg22  1  0.72731200  0.86365600  0.27083300  1
  Mg  Mg23  1  0.35312900  0.09792900  0.27869700  1
  Mg  Mg24  1  0.86722200  0.09792900  0.27869700  1
  Mg  Mg25  1  0.58740200  0.62938300  0.26297000  1
  Mg  Mg26  1  0.10149500  0.62938300  0.26297000  1
  Mg  Mg27  1  0.52731200  0.26365600  0.32083300  1
  Mg  Mg28  1  0.32731200  0.66365600  0.37083300  1
  Mg  Mg29  1  0.39303900  0.53220200  0.31156000  1
  Mg  Mg30  1  0.95312900  0.89792900  0.37869700  1
  Mg  Mg31  1  0.46722200  0.89792900  0.37869700  1
  Mg  Mg32  1  0.18740200  0.42938300  0.36297000  1
  Mg  Mg33  1  0.70149500  0.42938300  0.36297000  1
  Mg  Mg34  1  0.66158500  0.99511000  0.33010600  1
  Mg  Mg35  1  0.12731200  0.06365600  0.42083300  1
  Mg  Mg36  1  0.92731200  0.46365600  0.47083300  1
  Mg  Mg37  1  0.99303900  0.33220200  0.41156000  1
  Mg  Mg38  1  0.55312900  0.69792900  0.47869700  1
  Mg  Mg39  1  0.06722200  0.69792900  0.47869700  1
  Mg  Mg40  1  0.78740200  0.22938300  0.46297000  1
  Mg  Mg41  1  0.30149500  0.22938300  0.46297000  1
  Mg  Mg42  1  0.26158500  0.79511000  0.43010600  1
  Mg  Mg43  1  0.72731200  0.86365600  0.52083300  1
  Mg  Mg44  1  0.52731200  0.26365600  0.57083300  1
  Mg  Mg45  1  0.59303900  0.13220200  0.51156000  1
  Mg  Mg46  1  0.15312900  0.49792900  0.57869700  1
  Mg  Mg47  1  0.66722200  0.49792900  0.57869700  1
  Mg  Mg48  1  0.38740200  0.02938300  0.56297000  1
  Mg  Mg49  1  0.90149500  0.02938300  0.56297000  1
  Mg  Mg50  1  0.86158500  0.59511000  0.53010600  1
  Mg  Mg51  1  0.32731200  0.66365600  0.62083300  1
  Mg  Mg52  1  0.12731200  0.06365600  0.67083300  1
  Mg  Mg53  1  0.19303900  0.93220200  0.61156000  1
  Mg  Mg54  1  0.75312900  0.29792900  0.67869700  1
  Mg  Mg55  1  0.26722200  0.29792900  0.67869700  1
  Mg  Mg56  1  0.98740200  0.82938300  0.66297000  1
  Mg  Mg57  1  0.50149500  0.82938300  0.66297000  1
  Mg  Mg58  1  0.46158500  0.39511000  0.63010600  1
  Mg  Mg59  1  0.92731200  0.46365600  0.72083300  1
  Mg  Mg60  1  0.72731200  0.86365600  0.77083300  1
  Mg  Mg61  1  0.79303900  0.73220200  0.71156000  1
  Mg  Mg62  1  0.35312900  0.09792900  0.77869700  1
  Mg  Mg63  1  0.86722200  0.09792900  0.77869700  1
  Mg  Mg64  1  0.58740200  0.62938300  0.76297000  1
  Mg  Mg65  1  0.10149500  0.62938300  0.76297000  1
  Mg  Mg66  1  0.06158500  0.19511000  0.73010600  1
