# generated using pymatgen
data_Ce4Mg35
_symmetry_space_group_name_H-M   'P 1'
_cell_length_a   10.33012900
_cell_length_b   14.43775486
_cell_length_c   46.86335100
_cell_angle_alpha   91.26380978
_cell_angle_beta   90.00000000
_cell_angle_gamma   69.03810193
_symmetry_Int_Tables_number   1
_chemical_formula_structural   Ce4Mg35
_chemical_formula_sum   'Ce12 Mg105'
_cell_volume   6524.99326643
_cell_formula_units_Z   3
loop_
 _symmetry_equiv_pos_site_id
 _symmetry_equiv_pos_as_xyz
  1  'x, y, z'
loop_
 _atom_site_type_symbol
 _atom_site_label
 _atom_site_symmetry_multiplicity
 _atom_site_fract_x
 _atom_site_fract_y
 _atom_site_fract_z
 _atom_site_occupancy
  Ce  Ce0  1  0.91741600  0.16516800  0.25563900  1
  Ce  Ce1  1  0.77455900  0.45088200  0.32706800  1
  Ce  Ce2  1  0.48884500  0.02231000  0.30325800  1
  Ce  Ce3  1  0.20313000  0.59373900  0.27944900  1
  Ce  Ce4  1  0.63170200  0.73659600  0.39849600  1
  Ce  Ce5  1  0.48884500  0.02231000  0.46992500  1
  Ce  Ce6  1  0.20313000  0.59373900  0.44611500  1
  Ce  Ce7  1  0.91741600  0.16516800  0.42230600  1
  Ce  Ce8  1  0.34598800  0.30802500  0.54135300  1
  Ce  Ce9  1  0.20313000  0.59373900  0.61278200  1
  Ce  Ce10  1  0.91741600  0.16516800  0.58897200  1
  Ce  Ce11  1  0.63170200  0.73659600  0.56516300  1
  Mg  Mg12  1  0.34598800  0.30802500  0.29135300  1
  Mg  Mg13  1  0.98884500  0.52231000  0.21992500  1
  Mg  Mg14  1  0.13024700  0.22616500  0.31144300  1
  Mg  Mg15  1  0.77410800  0.96512500  0.24618300  1
  Mg  Mg16  1  0.90934200  0.18131600  0.34078600  1
  Mg  Mg17  1  0.84460500  0.60570600  0.27546000  1
  Mg  Mg18  1  0.58818400  0.82363100  0.25358800  1
  Mg  Mg19  1  0.30247000  0.39506000  0.22977900  1
  Mg  Mg20  1  0.91786700  0.65092500  0.33652300  1
  Mg  Mg21  1  0.93336400  0.73884500  0.23108000  1
  Mg  Mg22  1  0.14228700  0.01034300  0.30724700  1
  Mg  Mg23  1  0.26076700  0.96512500  0.24618300  1
  Mg  Mg24  1  0.25498000  0.17938300  0.25090100  1
  Mg  Mg25  1  0.54968800  0.60570600  0.27546000  1
  Mg  Mg26  1  0.64358800  0.22616500  0.31144300  1
  Mg  Mg27  1  0.78263300  0.43473300  0.24192100  1
  Mg  Mg28  1  0.06453600  0.87092800  0.26318900  1
  Mg  Mg29  1  0.62743900  0.74512200  0.31951800  1
  Mg  Mg30  1  0.38950500  0.22099000  0.35292800  1
  Mg  Mg31  1  0.04838700  0.38988500  0.27126300  1
  Mg  Mg32  1  0.34598800  0.80802500  0.29135300  1
  Mg  Mg33  1  0.56563700  0.17938300  0.25090100  1
  Mg  Mg34  1  0.84737000  0.01034300  0.30724700  1
  Mg  Mg35  1  0.10379100  0.79241800  0.32911800  1
  Mg  Mg36  1  0.56172800  0.38988500  0.27126300  1
  Mg  Mg37  1  0.36418400  0.87720500  0.35162700  1
  Mg  Mg38  1  0.12633800  0.43666600  0.33180600  1
  Mg  Mg39  1  0.43120800  0.65092500  0.33652300  1
  Mg  Mg40  1  0.75861100  0.87720500  0.35162700  1
  Mg  Mg41  1  0.84598800  0.80802500  0.29135300  1
  Mg  Mg42  1  0.32779100  0.73884500  0.23108000  1
  Mg  Mg43  1  0.43699500  0.43666600  0.33180600  1
  Mg  Mg44  1  0.48884500  0.52231000  0.21992500  1
  Mg  Mg45  1  0.48884500  0.02231000  0.21992500  1
  Mg  Mg46  1  0.06027300  0.87945300  0.43421100  1
  Mg  Mg47  1  0.70313000  0.09373900  0.36278200  1
  Mg  Mg48  1  0.84453300  0.79759400  0.45430100  1
  Mg  Mg49  1  0.48839400  0.53655300  0.38904000  1
  Mg  Mg50  1  0.62362800  0.75274500  0.48364300  1
  Mg  Mg51  1  0.55889100  0.17713500  0.41831700  1
  Mg  Mg52  1  0.30247000  0.39506000  0.39644500  1
  Mg  Mg53  1  0.01675600  0.96648800  0.37263600  1
  Mg  Mg54  1  0.63215300  0.22235300  0.47938100  1
  Mg  Mg55  1  0.64765000  0.31027300  0.37393700  1
  Mg  Mg56  1  0.85657200  0.58177200  0.45010400  1
  Mg  Mg57  1  0.97505300  0.53655300  0.38904000  1
  Mg  Mg58  1  0.96926600  0.75081200  0.39375800  1
  Mg  Mg59  1  0.26397400  0.17713500  0.41831700  1
  Mg  Mg60  1  0.35787300  0.79759400  0.45430100  1
  Mg  Mg61  1  0.49691900  0.00616200  0.38477800  1
  Mg  Mg62  1  0.77882200  0.44235600  0.40604600  1
  Mg  Mg63  1  0.34172500  0.31655000  0.46237500  1
  Mg  Mg64  1  0.10379100  0.79241800  0.49578500  1
  Mg  Mg65  1  0.76267300  0.96131300  0.41412100  1
  Mg  Mg66  1  0.06027300  0.37945300  0.43421100  1
  Mg  Mg67  1  0.27992200  0.75081200  0.39375800  1
  Mg  Mg68  1  0.56165600  0.58177200  0.45010400  1
  Mg  Mg69  1  0.81807700  0.36384700  0.47197600  1
  Mg  Mg70  1  0.27601400  0.96131300  0.41412100  1
  Mg  Mg71  1  0.07847000  0.44863300  0.49448400  1
  Mg  Mg72  1  0.84062400  0.00809500  0.47466300  1
  Mg  Mg73  1  0.14549400  0.22235300  0.47938100  1
  Mg  Mg74  1  0.47289600  0.44863300  0.49448400  1
  Mg  Mg75  1  0.56027300  0.37945300  0.43421100  1
  Mg  Mg76  1  0.04207600  0.31027300  0.37393700  1
  Mg  Mg77  1  0.15128100  0.00809500  0.47466300  1
  Mg  Mg78  1  0.20313000  0.09373900  0.36278200  1
  Mg  Mg79  1  0.20313000  0.59373900  0.36278200  1
  Mg  Mg80  1  0.77455900  0.45088200  0.57706800  1
  Mg  Mg81  1  0.41741600  0.66516800  0.50563900  1
  Mg  Mg82  1  0.55881900  0.36902200  0.59715800  1
  Mg  Mg83  1  0.20267900  0.10798200  0.53189800  1
  Mg  Mg84  1  0.33791300  0.32417300  0.62650000  1
  Mg  Mg85  1  0.27317700  0.74856300  0.56117400  1
  Mg  Mg86  1  0.01675600  0.96648800  0.53930300  1
  Mg  Mg87  1  0.73104200  0.53791700  0.51549300  1
  Mg  Mg88  1  0.34643900  0.79378200  0.62223800  1
  Mg  Mg89  1  0.36193600  0.88170200  0.51679400  1
  Mg  Mg90  1  0.57085800  0.15320100  0.59296100  1
  Mg  Mg91  1  0.68933900  0.10798200  0.53189800  1
  Mg  Mg92  1  0.68355100  0.32224000  0.53661500  1
  Mg  Mg93  1  0.97826000  0.74856300  0.56117400  1
  Mg  Mg94  1  0.07215900  0.36902200  0.59715800  1
  Mg  Mg95  1  0.21120500  0.57759000  0.52763500  1
  Mg  Mg96  1  0.49310700  0.01378500  0.54890300  1
  Mg  Mg97  1  0.05601100  0.88797900  0.60523200  1
  Mg  Mg98  1  0.81807700  0.36384700  0.63864200  1
  Mg  Mg99  1  0.47695900  0.53274200  0.55697800  1
  Mg  Mg100  1  0.77455900  0.95088200  0.57706800  1
  Mg  Mg101  1  0.99420800  0.32224000  0.53661500  1
  Mg  Mg102  1  0.27594100  0.15320100  0.59296100  1
  Mg  Mg103  1  0.53236200  0.93527500  0.61483300  1
  Mg  Mg104  1  0.99029900  0.53274200  0.55697800  1
  Mg  Mg105  1  0.79275600  0.02006200  0.63734100  1
  Mg  Mg106  1  0.55491000  0.57952300  0.61752000  1
  Mg  Mg107  1  0.85977900  0.79378200  0.62223800  1
  Mg  Mg108  1  0.18718200  0.02006200  0.63734100  1
  Mg  Mg109  1  0.27455900  0.95088200  0.57706800  1
  Mg  Mg110  1  0.75636200  0.88170200  0.51679400  1
  Mg  Mg111  1  0.86556700  0.57952300  0.61752000  1
  Mg  Mg112  1  0.91741600  0.66516800  0.50563900  1
  Mg  Mg113  1  0.91741600  0.16516800  0.50563900  1
  Mg  Mg114  1  0.13170200  0.23659600  0.64849600  1
  Mg  Mg115  1  0.63170200  0.23659600  0.64849600  1
  Mg  Mg116  1  0.63170200  0.73659600  0.64849600  1
