# generated using pymatgen
data_Mg95Rh36
_symmetry_space_group_name_H-M   'P 1'
_cell_length_a   8.64031900
_cell_length_b   11.79877622
_cell_length_c   43.91762100
_cell_angle_alpha   86.20917344
_cell_angle_beta   90.00000000
_cell_angle_gamma   68.52142843
_symmetry_Int_Tables_number   1
_chemical_formula_structural   Mg95Rh36
_chemical_formula_sum   'Mg95 Rh36'
_cell_volume   4155.74122190
_cell_formula_units_Z   1
loop_
 _symmetry_equiv_pos_site_id
 _symmetry_equiv_pos_as_xyz
  1  'x, y, z'
loop_
 _atom_site_type_symbol
 _atom_site_label
 _atom_site_symmetry_multiplicity
 _atom_site_fract_x
 _atom_site_fract_y
 _atom_site_fract_z
 _atom_site_occupancy
  Mg  Mg0  1  0.91358800  0.17282500  0.22991100  1
  Mg  Mg1  1  0.78858800  0.42282500  0.29241100  1
  Mg  Mg2  1  0.33097100  0.33805800  0.25110200  1
  Mg  Mg3  1  0.78068000  0.81794100  0.25613200  1
  Mg  Mg4  1  0.40137900  0.81794100  0.25613200  1
  Mg  Mg5  1  0.42579600  0.52770800  0.20369000  1
  Mg  Mg6  1  0.04649600  0.52770800  0.20369000  1
  Mg  Mg7  1  0.49620400  0.00759200  0.20871900  1
  Mg  Mg8  1  0.02536600  0.94926800  0.26967100  1
  Mg  Mg9  1  0.13949000  0.29491700  0.30825900  1
  Mg  Mg10  1  0.56559300  0.29491700  0.30825900  1
  Mg  Mg11  1  0.16884000  0.23621600  0.19793400  1
  Mg  Mg12  1  0.59494400  0.23621600  0.19793400  1
  Mg  Mg13  1  0.80180900  0.39638200  0.19015000  1
  Mg  Mg14  1  0.23223200  0.10943300  0.26188800  1
  Mg  Mg15  1  0.70906700  0.58186600  0.23652200  1
  Mg  Mg16  1  0.65833500  0.10943300  0.26188800  1
  Mg  Mg17  1  0.01158200  0.55073200  0.27656300  1
  Mg  Mg18  1  0.11810800  0.76378400  0.22330000  1
  Mg  Mg19  1  0.43768600  0.55073200  0.27656300  1
  Mg  Mg20  1  0.66358800  0.67282500  0.35491100  1
  Mg  Mg21  1  0.53858800  0.92282500  0.41741100  1
  Mg  Mg22  1  0.08097100  0.83805800  0.37610200  1
  Mg  Mg23  1  0.53068000  0.31794100  0.38113200  1
  Mg  Mg24  1  0.15137900  0.31794100  0.38113200  1
  Mg  Mg25  1  0.17579600  0.02770800  0.32869000  1
  Mg  Mg26  1  0.79649600  0.02770800  0.32869000  1
  Mg  Mg27  1  0.24620400  0.50759200  0.33371900  1
  Mg  Mg28  1  0.77536600  0.44926800  0.39467100  1
  Mg  Mg29  1  0.88949000  0.79491700  0.43325900  1
  Mg  Mg30  1  0.31559300  0.79491700  0.43325900  1
  Mg  Mg31  1  0.91884000  0.73621600  0.32293400  1
  Mg  Mg32  1  0.34494400  0.73621600  0.32293400  1
  Mg  Mg33  1  0.55180900  0.89638200  0.31515000  1
  Mg  Mg34  1  0.98223200  0.60943300  0.38688800  1
  Mg  Mg35  1  0.45906700  0.08186600  0.36152200  1
  Mg  Mg36  1  0.40833500  0.60943300  0.38688800  1
  Mg  Mg37  1  0.76158200  0.05073200  0.40156300  1
  Mg  Mg38  1  0.86810800  0.26378400  0.34830000  1
  Mg  Mg39  1  0.18768600  0.05073200  0.40156300  1
  Mg  Mg40  1  0.41358800  0.17282500  0.47991100  1
  Mg  Mg41  1  0.28858800  0.42282500  0.54241100  1
  Mg  Mg42  1  0.83097100  0.33805800  0.50110200  1
  Mg  Mg43  1  0.28068000  0.81794100  0.50613200  1
  Mg  Mg44  1  0.90137900  0.81794100  0.50613200  1
  Mg  Mg45  1  0.92579600  0.52770800  0.45369000  1
  Mg  Mg46  1  0.54649600  0.52770800  0.45369000  1
  Mg  Mg47  1  0.99620400  0.00759200  0.45871900  1
  Mg  Mg48  1  0.52536600  0.94926800  0.51967100  1
  Mg  Mg49  1  0.63949000  0.29491700  0.55825900  1
  Mg  Mg50  1  0.06559300  0.29491700  0.55825900  1
  Mg  Mg51  1  0.66884000  0.23621600  0.44793400  1
  Mg  Mg52  1  0.09494400  0.23621600  0.44793400  1
  Mg  Mg53  1  0.30180900  0.39638200  0.44015000  1
  Mg  Mg54  1  0.73223200  0.10943300  0.51188800  1
  Mg  Mg55  1  0.20906700  0.58186600  0.48652200  1
  Mg  Mg56  1  0.15833500  0.10943300  0.51188800  1
  Mg  Mg57  1  0.51158200  0.55073200  0.52656300  1
  Mg  Mg58  1  0.61810800  0.76378400  0.47330000  1
  Mg  Mg59  1  0.93768600  0.55073200  0.52656300  1
  Mg  Mg60  1  0.16358800  0.67282500  0.60491100  1
  Mg  Mg61  1  0.03858800  0.92282500  0.66741100  1
  Mg  Mg62  1  0.58097100  0.83805800  0.62610200  1
  Mg  Mg63  1  0.03068000  0.31794100  0.63113200  1
  Mg  Mg64  1  0.65137900  0.31794100  0.63113200  1
  Mg  Mg65  1  0.67579600  0.02770800  0.57869000  1
  Mg  Mg66  1  0.29649600  0.02770800  0.57869000  1
  Mg  Mg67  1  0.74620400  0.50759200  0.58371900  1
  Mg  Mg68  1  0.27536600  0.44926800  0.64467100  1
  Mg  Mg69  1  0.38949000  0.79491700  0.68325900  1
  Mg  Mg70  1  0.81559300  0.79491700  0.68325900  1
  Mg  Mg71  1  0.41884000  0.73621600  0.57293400  1
  Mg  Mg72  1  0.84494400  0.73621600  0.57293400  1
  Mg  Mg73  1  0.05180900  0.89638200  0.56515000  1
  Mg  Mg74  1  0.48223200  0.60943300  0.63688800  1
  Mg  Mg75  1  0.95906700  0.08186600  0.61152200  1
  Mg  Mg76  1  0.90833500  0.60943300  0.63688800  1
  Mg  Mg77  1  0.26158200  0.05073200  0.65156300  1
  Mg  Mg78  1  0.36810800  0.26378400  0.59830000  1
  Mg  Mg79  1  0.68768600  0.05073200  0.65156300  1
  Mg  Mg80  1  0.91358800  0.17282500  0.72991100  1
  Mg  Mg81  1  0.33097100  0.33805800  0.75110200  1
  Mg  Mg82  1  0.78068000  0.81794100  0.75613200  1
  Mg  Mg83  1  0.40137900  0.81794100  0.75613200  1
  Mg  Mg84  1  0.42579600  0.52770800  0.70369000  1
  Mg  Mg85  1  0.04649600  0.52770800  0.70369000  1
  Mg  Mg86  1  0.49620400  0.00759200  0.70871900  1
  Mg  Mg87  1  0.02536600  0.94926800  0.76967100  1
  Mg  Mg88  1  0.16884000  0.23621600  0.69793400  1
  Mg  Mg89  1  0.59494400  0.23621600  0.69793400  1
  Mg  Mg90  1  0.80180900  0.39638200  0.69015000  1
  Mg  Mg91  1  0.23223200  0.10943300  0.76188800  1
  Mg  Mg92  1  0.70906700  0.58186600  0.73652200  1
  Mg  Mg93  1  0.65833500  0.10943300  0.76188800  1
  Mg  Mg94  1  0.11810800  0.76378400  0.72330000  1
  Rh  Rh95  1  0.14275400  0.71449100  0.28199400  1
  Rh  Rh96  1  0.43442100  0.13115800  0.30282700  1
  Rh  Rh97  1  0.91223900  0.17552100  0.29173700  1
  Rh  Rh98  1  0.19011900  0.98667300  0.21394900  1
  Rh  Rh99  1  0.82320800  0.98667300  0.21394900  1
  Rh  Rh100  1  0.00396700  0.35897600  0.24587300  1
  Rh  Rh101  1  0.63705700  0.35897600  0.24587300  1
  Rh  Rh102  1  0.66493600  0.67012800  0.29308500  1
  Rh  Rh103  1  0.89275400  0.21449100  0.40699400  1
  Rh  Rh104  1  0.18442100  0.63115800  0.42782700  1
  Rh  Rh105  1  0.66223900  0.67552100  0.41673700  1
  Rh  Rh106  1  0.94011900  0.48667300  0.33894900  1
  Rh  Rh107  1  0.57320800  0.48667300  0.33894900  1
  Rh  Rh108  1  0.75396700  0.85897600  0.37087300  1
  Rh  Rh109  1  0.38705700  0.85897600  0.37087300  1
  Rh  Rh110  1  0.41493600  0.17012800  0.41808500  1
  Rh  Rh111  1  0.64275400  0.71449100  0.53199400  1
  Rh  Rh112  1  0.93442100  0.13115800  0.55282700  1
  Rh  Rh113  1  0.41223900  0.17552100  0.54173700  1
  Rh  Rh114  1  0.69011900  0.98667300  0.46394900  1
  Rh  Rh115  1  0.32320800  0.98667300  0.46394900  1
  Rh  Rh116  1  0.50396700  0.35897600  0.49587300  1
  Rh  Rh117  1  0.13705700  0.35897600  0.49587300  1
  Rh  Rh118  1  0.16493600  0.67012800  0.54308500  1
  Rh  Rh119  1  0.39275400  0.21449100  0.65699400  1
  Rh  Rh120  1  0.68442100  0.63115800  0.67782700  1
  Rh  Rh121  1  0.16223900  0.67552100  0.66673700  1
  Rh  Rh122  1  0.44011900  0.48667300  0.58894900  1
  Rh  Rh123  1  0.07320800  0.48667300  0.58894900  1
  Rh  Rh124  1  0.25396700  0.85897600  0.62087300  1
  Rh  Rh125  1  0.88705700  0.85897600  0.62087300  1
  Rh  Rh126  1  0.91493600  0.17012800  0.66808500  1
  Rh  Rh127  1  0.19011900  0.98667300  0.71394900  1
  Rh  Rh128  1  0.82320800  0.98667300  0.71394900  1
  Rh  Rh129  1  0.00396700  0.35897600  0.74587300  1
  Rh  Rh130  1  0.63705700  0.35897600  0.74587300  1
