# generated using pymatgen
data_Mg63Zn113
_symmetry_space_group_name_H-M   'P 1'
_cell_length_a   15.05205963
_cell_length_b   15.58232832
_cell_length_c   44.40935000
_cell_angle_alpha   95.28205411
_cell_angle_beta   87.96000798
_cell_angle_gamma   92.33702888
_symmetry_Int_Tables_number   1
_chemical_formula_structural   Mg63Zn113
_chemical_formula_sum   'Mg126 Zn226'
_cell_volume   10357.87463183
_cell_formula_units_Z   2
loop_
 _symmetry_equiv_pos_site_id
 _symmetry_equiv_pos_as_xyz
  1  'x, y, z'
loop_
 _atom_site_type_symbol
 _atom_site_label
 _atom_site_symmetry_multiplicity
 _atom_site_fract_x
 _atom_site_fract_y
 _atom_site_fract_z
 _atom_site_occupancy
  Mg  Mg0  1  0.71369700  0.88216600  0.20223900  1
  Mg  Mg1  1  0.97997400  0.66879500  0.22921500  1
  Mg  Mg2  1  0.44032200  0.26758900  0.26931300  1
  Mg  Mg3  1  0.71120000  0.87008100  0.27092100  1
  Mg  Mg4  1  0.83750800  0.53625000  0.25049000  1
  Mg  Mg5  1  0.56218000  0.02326800  0.18937000  1
  Mg  Mg6  1  0.65934400  0.54694900  0.21418000  1
  Mg  Mg7  1  0.04532100  0.00817900  0.21998800  1
  Mg  Mg8  1  0.49579700  0.60240100  0.25836800  1
  Mg  Mg9  1  0.91901200  0.34201100  0.24041900  1
  Mg  Mg10  1  0.31619900  0.61067200  0.22159600  1
  Mg  Mg11  1  0.26072400  0.27585900  0.23254100  1
  Mg  Mg12  1  0.90519200  0.85070300  0.23879300  1
  Mg  Mg13  1  0.60097200  0.21085800  0.22489700  1
  Mg  Mg14  1  0.15554900  0.66740200  0.26601200  1
  Mg  Mg15  1  0.27899400  0.42222000  0.18582000  1
  Mg  Mg16  1  0.22464100  0.08700300  0.19776100  1
  Mg  Mg17  1  0.37615900  0.94590200  0.21063000  1
  Mg  Mg18  1  0.77654600  0.20946500  0.26169400  1
  Mg  Mg19  1  0.85132900  0.02755700  0.25211600  1
  Mg  Mg20  1  0.53187900  0.79125700  0.29314800  1
  Mg  Mg21  1  0.79815600  0.57788600  0.32012400  1
  Mg  Mg22  1  0.25850400  0.17668000  0.36022200  1
  Mg  Mg23  1  0.52938100  0.77917200  0.36183000  1
  Mg  Mg24  1  0.65569000  0.44534000  0.34139900  1
  Mg  Mg25  1  0.38036200  0.93235800  0.28028000  1
  Mg  Mg26  1  0.47752600  0.45604000  0.30508900  1
  Mg  Mg27  1  0.86350300  0.91727000  0.31089700  1
  Mg  Mg28  1  0.31397800  0.51149200  0.34927700  1
  Mg  Mg29  1  0.73719400  0.25110200  0.33132800  1
  Mg  Mg30  1  0.13438000  0.51976300  0.31250500  1
  Mg  Mg31  1  0.07890600  0.18495000  0.32345000  1
  Mg  Mg32  1  0.72337400  0.75979400  0.32970200  1
  Mg  Mg33  1  0.41915400  0.11994900  0.31580600  1
  Mg  Mg34  1  0.97373100  0.57649300  0.35692100  1
  Mg  Mg35  1  0.09717600  0.33131100  0.27672900  1
  Mg  Mg36  1  0.04282300  0.99609400  0.28867000  1
  Mg  Mg37  1  0.19434100  0.85499300  0.30153900  1
  Mg  Mg38  1  0.59472800  0.11855600  0.35260300  1
  Mg  Mg39  1  0.66951100  0.93664800  0.34302500  1
  Mg  Mg40  1  0.35006100  0.70034800  0.38405700  1
  Mg  Mg41  1  0.61633800  0.48697700  0.41103300  1
  Mg  Mg42  1  0.07668600  0.08577000  0.45113100  1
  Mg  Mg43  1  0.34756300  0.68826300  0.45274000  1
  Mg  Mg44  1  0.47387200  0.35443100  0.43230800  1
  Mg  Mg45  1  0.19854400  0.84144900  0.37118900  1
  Mg  Mg46  1  0.29570800  0.36513100  0.39599800  1
  Mg  Mg47  1  0.68168500  0.82636100  0.40180600  1
  Mg  Mg48  1  0.13216000  0.42058300  0.44018600  1
  Mg  Mg49  1  0.55537600  0.16019300  0.42223700  1
  Mg  Mg50  1  0.95256200  0.42885300  0.40341400  1
  Mg  Mg51  1  0.89708800  0.09404100  0.41435900  1
  Mg  Mg52  1  0.54155500  0.66888500  0.42061100  1
  Mg  Mg53  1  0.23733500  0.02904000  0.40671500  1
  Mg  Mg54  1  0.79191200  0.48558400  0.44783000  1
  Mg  Mg55  1  0.91535800  0.24040200  0.36763800  1
  Mg  Mg56  1  0.86100500  0.90518500  0.37957900  1
  Mg  Mg57  1  0.01252300  0.76408400  0.39244800  1
  Mg  Mg58  1  0.41291000  0.02764700  0.44351300  1
  Mg  Mg59  1  0.48769200  0.84573900  0.43393400  1
  Mg  Mg60  1  0.16824300  0.60943900  0.47496600  1
  Mg  Mg61  1  0.43452000  0.39606800  0.50194200  1
  Mg  Mg62  1  0.89486800  0.99486100  0.54204100  1
  Mg  Mg63  1  0.16574500  0.59735400  0.54364900  1
  Mg  Mg64  1  0.29205400  0.26352200  0.52321700  1
  Mg  Mg65  1  0.01672500  0.75054000  0.46209800  1
  Mg  Mg66  1  0.11389000  0.27422200  0.48690700  1
  Mg  Mg67  1  0.49986600  0.73545200  0.49271500  1
  Mg  Mg68  1  0.95034200  0.32967400  0.53109500  1
  Mg  Mg69  1  0.37355800  0.06928300  0.51314600  1
  Mg  Mg70  1  0.77074400  0.33794400  0.49432300  1
  Mg  Mg71  1  0.71526900  0.00313200  0.50526800  1
  Mg  Mg72  1  0.35973700  0.57797600  0.51152100  1
  Mg  Mg73  1  0.05551700  0.93813100  0.49762400  1
  Mg  Mg74  1  0.61009400  0.39467500  0.53873900  1
  Mg  Mg75  1  0.73354000  0.14949300  0.45854700  1
  Mg  Mg76  1  0.67918700  0.81427600  0.47048800  1
  Mg  Mg77  1  0.83070400  0.67317500  0.48335700  1
  Mg  Mg78  1  0.23109200  0.93673800  0.53442200  1
  Mg  Mg79  1  0.30587400  0.75483000  0.52484300  1
  Mg  Mg80  1  0.98642500  0.51853000  0.56587500  1
  Mg  Mg81  1  0.25270100  0.30515900  0.59285100  1
  Mg  Mg82  1  0.71304900  0.90395200  0.63295000  1
  Mg  Mg83  1  0.98392700  0.50644500  0.63455800  1
  Mg  Mg84  1  0.11023600  0.17261300  0.61412600  1
  Mg  Mg85  1  0.83490700  0.65963100  0.55300700  1
  Mg  Mg86  1  0.93207200  0.18331300  0.57781700  1
  Mg  Mg87  1  0.31804800  0.64454300  0.58362400  1
  Mg  Mg88  1  0.76852400  0.23876500  0.62200500  1
  Mg  Mg89  1  0.19174000  0.97837400  0.60405500  1
  Mg  Mg90  1  0.58892600  0.24703500  0.58523200  1
  Mg  Mg91  1  0.53345100  0.91222300  0.59617700  1
  Mg  Mg92  1  0.17791900  0.48706700  0.60243000  1
  Mg  Mg93  1  0.87369900  0.84722200  0.58853400  1
  Mg  Mg94  1  0.42827600  0.30376600  0.62964800  1
  Mg  Mg95  1  0.55172200  0.05858400  0.54945600  1
  Mg  Mg96  1  0.49736900  0.72336700  0.56139800  1
  Mg  Mg97  1  0.64888600  0.58226500  0.57426600  1
  Mg  Mg98  1  0.04927400  0.84582900  0.62533100  1
  Mg  Mg99  1  0.12405600  0.66392100  0.61575200  1
  Mg  Mg100  1  0.80460600  0.42762100  0.65678400  1
  Mg  Mg101  1  0.07088300  0.21425000  0.68376000  1
  Mg  Mg102  1  0.53123100  0.81304300  0.72385900  1
  Mg  Mg103  1  0.80210900  0.41553600  0.72546700  1
  Mg  Mg104  1  0.92841700  0.08170400  0.70503500  1
  Mg  Mg105  1  0.65308900  0.56872200  0.64391600  1
  Mg  Mg106  1  0.75025300  0.09240400  0.66872600  1
  Mg  Mg107  1  0.13623000  0.55363300  0.67453300  1
  Mg  Mg108  1  0.58670600  0.14785500  0.71291400  1
  Mg  Mg109  1  0.00992100  0.88746500  0.69496500  1
  Mg  Mg110  1  0.40710800  0.15612600  0.67614100  1
  Mg  Mg111  1  0.35163300  0.82131400  0.68708600  1
  Mg  Mg112  1  0.99610100  0.39615800  0.69333900  1
  Mg  Mg113  1  0.69188100  0.75631300  0.67944300  1
  Mg  Mg114  1  0.24645800  0.21285600  0.72055700  1
  Mg  Mg115  1  0.36990400  0.96767500  0.64036500  1
  Mg  Mg116  1  0.31555100  0.63245800  0.65230700  1
  Mg  Mg117  1  0.46706800  0.49135600  0.66517500  1
  Mg  Mg118  1  0.86745500  0.75492000  0.71624000  1
  Mg  Mg119  1  0.94223800  0.57301200  0.70666100  1
  Mg  Mg120  1  0.62278800  0.33671200  0.74769300  1
  Mg  Mg121  1  0.47127100  0.47781300  0.73482500  1
  Mg  Mg122  1  0.56843500  0.00149400  0.75963500  1
  Mg  Mg123  1  0.18808500  0.87676600  0.73127400  1
  Mg  Mg124  1  0.13373200  0.54154900  0.74321600  1
  Mg  Mg125  1  0.28525000  0.40044700  0.75608400  1
  Zn  Zn126  1  0.84197500  0.58867500  0.18820000  1
  Zn  Zn127  1  0.02824400  0.81363100  0.18834100  1
  Zn  Zn128  1  0.49553600  0.65382600  0.19361100  1
  Zn  Zn129  1  0.98371600  0.16780300  0.26509200  1
  Zn  Zn130  1  0.03874300  0.50685300  0.25449600  1
  Zn  Zn131  1  0.68444600  0.66301100  0.27204200  1
  Zn  Zn132  1  0.46916900  0.48458500  0.20000000  1
  Zn  Zn133  1  0.09636400  0.38049500  0.21180000  1
  Zn  Zn134  1  0.26694600  0.80889500  0.23859600  1
  Zn  Zn135  1  0.80726800  0.41622800  0.19148000  1
  Zn  Zn136  1  0.43200700  0.77504300  0.23401800  1
  Zn  Zn137  1  0.54574700  0.90666400  0.24111700  1
  Zn  Zn138  1  0.54840300  0.40912900  0.24185400  1
  Zn  Zn139  1  0.78247100  0.25444900  0.19775800  1
  Zn  Zn140  1  0.91009400  0.15553800  0.21165900  1
  Zn  Zn141  1  0.48957500  0.06936500  0.25231400  1
  Zn  Zn142  1  0.66238400  0.03670100  0.24754100  1
  Zn  Zn143  1  0.13107100  0.55294200  0.20852000  1
  Zn  Zn144  1  0.07207500  0.21524900  0.21886700  1
  Zn  Zn145  1  0.20811800  0.46913100  0.24905500  1
  Zn  Zn146  1  0.09413600  0.84155900  0.24336800  1
  Zn  Zn147  1  0.71777800  0.37140700  0.23641300  1
  Zn  Zn148  1  0.37826000  0.43913000  0.24545500  1
  Zn  Zn149  1  0.60524400  0.73859700  0.23052500  1
  Zn  Zn150  1  0.52246500  0.82155000  0.18803600  1
  Zn  Zn151  1  0.75310900  0.07892400  0.20349900  1
  Zn  Zn152  1  0.15127600  0.13966300  0.26038400  1
  Zn  Zn153  1  0.18523000  0.89024500  0.19650100  1
  Zn  Zn154  1  0.15586700  0.71472000  0.20224200  1
  Zn  Zn155  1  0.41587400  0.14761900  0.21196400  1
  Zn  Zn156  1  0.77280400  0.71045700  0.22581700  1
  Zn  Zn157  1  0.96916900  0.48458500  0.20000000  1
  Zn  Zn158  1  0.32451300  0.10321700  0.25689100  1
  Zn  Zn159  1  0.21077300  0.97159700  0.24979200  1
  Zn  Zn160  1  0.44280300  0.31534400  0.20638900  1
  Zn  Zn161  1  0.66015700  0.49776500  0.27910900  1
  Zn  Zn162  1  0.84642600  0.72272200  0.27925000  1
  Zn  Zn163  1  0.31371800  0.56291700  0.28452000  1
  Zn  Zn164  1  0.80189800  0.07689400  0.35600100  1
  Zn  Zn165  1  0.85692500  0.41594400  0.34540500  1
  Zn  Zn166  1  0.50262800  0.57210200  0.36295100  1
  Zn  Zn167  1  0.28735100  0.39367600  0.29090900  1
  Zn  Zn168  1  0.91454600  0.28958600  0.30270900  1
  Zn  Zn169  1  0.08512800  0.71798600  0.32950500  1
  Zn  Zn170  1  0.62545000  0.32531900  0.28238900  1
  Zn  Zn171  1  0.25018900  0.68413400  0.32492700  1
  Zn  Zn172  1  0.36392900  0.81575500  0.33202600  1
  Zn  Zn173  1  0.36658400  0.31822000  0.33276300  1
  Zn  Zn174  1  0.60065300  0.16354000  0.28866700  1
  Zn  Zn175  1  0.72827600  0.06462900  0.30256800  1
  Zn  Zn176  1  0.30775700  0.97845600  0.34322300  1
  Zn  Zn177  1  0.48056600  0.94579200  0.33845000  1
  Zn  Zn178  1  0.94925300  0.46203300  0.29942900  1
  Zn  Zn179  1  0.89025600  0.12434000  0.30977600  1
  Zn  Zn180  1  0.02630000  0.37822200  0.33996400  1
  Zn  Zn181  1  0.91231800  0.75065000  0.33427700  1
  Zn  Zn182  1  0.53596000  0.28049800  0.32732200  1
  Zn  Zn183  1  0.19644200  0.34822100  0.33636400  1
  Zn  Zn184  1  0.42342600  0.64768800  0.32143400  1
  Zn  Zn185  1  0.34064700  0.73064100  0.27894600  1
  Zn  Zn186  1  0.57129100  0.98801500  0.29440800  1
  Zn  Zn187  1  0.96945800  0.04875400  0.35129300  1
  Zn  Zn188  1  0.00341200  0.79933600  0.28741000  1
  Zn  Zn189  1  0.97404900  0.62381100  0.29315100  1
  Zn  Zn190  1  0.23405600  0.05671000  0.30287300  1
  Zn  Zn191  1  0.59098600  0.61954800  0.31672600  1
  Zn  Zn192  1  0.78735100  0.39367600  0.29090900  1
  Zn  Zn193  1  0.14269500  0.01230800  0.34780000  1
  Zn  Zn194  1  0.02895500  0.88068800  0.34070100  1
  Zn  Zn195  1  0.26098500  0.22443500  0.29729800  1
  Zn  Zn196  1  0.47833800  0.40685600  0.37001800  1
  Zn  Zn197  1  0.66460800  0.63181300  0.37015900  1
  Zn  Zn198  1  0.13189900  0.47200800  0.37542900  1
  Zn  Zn199  1  0.62008000  0.98598500  0.44691100  1
  Zn  Zn200  1  0.67510600  0.32503500  0.43631400  1
  Zn  Zn201  1  0.32081000  0.48119300  0.45386000  1
  Zn  Zn202  1  0.10553300  0.30276700  0.38181800  1
  Zn  Zn203  1  0.73272800  0.19867700  0.39361800  1
  Zn  Zn204  1  0.90330900  0.62707700  0.42041400  1
  Zn  Zn205  1  0.44363100  0.23441000  0.37329800  1
  Zn  Zn206  1  0.06837100  0.59322500  0.41583600  1
  Zn  Zn207  1  0.18211100  0.72484500  0.42293500  1
  Zn  Zn208  1  0.18476600  0.22731100  0.42367200  1
  Zn  Zn209  1  0.41883500  0.07263100  0.37957700  1
  Zn  Zn210  1  0.54645800  0.97372000  0.39347700  1
  Zn  Zn211  1  0.12593900  0.88754700  0.43413200  1
  Zn  Zn212  1  0.29874800  0.85488300  0.42935900  1
  Zn  Zn213  1  0.76743500  0.37112300  0.39033800  1
  Zn  Zn214  1  0.70843800  0.03343100  0.40068500  1
  Zn  Zn215  1  0.84448200  0.28731300  0.43087300  1
  Zn  Zn216  1  0.73050000  0.65974100  0.42518600  1
  Zn  Zn217  1  0.35414100  0.18958900  0.41823100  1
  Zn  Zn218  1  0.01462400  0.25731200  0.42727300  1
  Zn  Zn219  1  0.24160800  0.55677900  0.41234300  1
  Zn  Zn220  1  0.15882900  0.63973200  0.36985500  1
  Zn  Zn221  1  0.38947200  0.89710600  0.38531700  1
  Zn  Zn222  1  0.78764000  0.95784500  0.44220200  1
  Zn  Zn223  1  0.82159400  0.70842700  0.37831900  1
  Zn  Zn224  1  0.79223100  0.53290200  0.38406000  1
  Zn  Zn225  1  0.05223700  0.96580100  0.39378200  1
  Zn  Zn226  1  0.40916800  0.52863900  0.40763500  1
  Zn  Zn227  1  0.60553300  0.30276700  0.38181800  1
  Zn  Zn228  1  0.96087700  0.92139900  0.43871000  1
  Zn  Zn229  1  0.84713700  0.78977800  0.43161000  1
  Zn  Zn230  1  0.07916700  0.13352500  0.38820700  1
  Zn  Zn231  1  0.29652000  0.31594700  0.46092700  1
  Zn  Zn232  1  0.48279000  0.54090400  0.46106800  1
  Zn  Zn233  1  0.95008100  0.38109900  0.46633800  1
  Zn  Zn234  1  0.43826200  0.89507600  0.53782000  1
  Zn  Zn235  1  0.49328800  0.23412600  0.52722300  1
  Zn  Zn236  1  0.13899200  0.39028400  0.54476900  1
  Zn  Zn237  1  0.92371500  0.21185700  0.47272700  1
  Zn  Zn238  1  0.55090900  0.10776800  0.48452700  1
  Zn  Zn239  1  0.72149100  0.53616800  0.51132300  1
  Zn  Zn240  1  0.26181300  0.14350000  0.46420700  1
  Zn  Zn241  1  0.88655300  0.50231600  0.50674500  1
  Zn  Zn242  1  0.00029300  0.63393600  0.51384500  1
  Zn  Zn243  1  0.00294800  0.13640200  0.51458100  1
  Zn  Zn244  1  0.23701700  0.98172200  0.47048600  1
  Zn  Zn245  1  0.36464000  0.88281100  0.48438600  1
  Zn  Zn246  1  0.94412000  0.79663800  0.52504100  1
  Zn  Zn247  1  0.11693000  0.76397400  0.52026800  1
  Zn  Zn248  1  0.58561600  0.28021400  0.48124800  1
  Zn  Zn249  1  0.52662000  0.94252200  0.49159400  1
  Zn  Zn250  1  0.66266300  0.19640400  0.52178200  1
  Zn  Zn251  1  0.54868200  0.56883200  0.51609600  1
  Zn  Zn252  1  0.17232300  0.09868000  0.50914000  1
  Zn  Zn253  1  0.83280600  0.16640300  0.51818200  1
  Zn  Zn254  1  0.05979000  0.46587000  0.50325200  1
  Zn  Zn255  1  0.97701000  0.54882300  0.46076400  1
  Zn  Zn256  1  0.20765400  0.80619700  0.47622700  1
  Zn  Zn257  1  0.60582200  0.86693600  0.53311100  1
  Zn  Zn258  1  0.63977600  0.61751800  0.46922800  1
  Zn  Zn259  1  0.61041300  0.44199300  0.47496900  1
  Zn  Zn260  1  0.87041900  0.87489200  0.48469100  1
  Zn  Zn261  1  0.22735000  0.43773000  0.49854400  1
  Zn  Zn262  1  0.42371500  0.21185700  0.47272700  1
  Zn  Zn263  1  0.77905900  0.83049000  0.52961900  1
  Zn  Zn264  1  0.66531900  0.69886900  0.52251900  1
  Zn  Zn265  1  0.89734800  0.04261600  0.47911600  1
  Zn  Zn266  1  0.11470200  0.22503800  0.55183600  1
  Zn  Zn267  1  0.30097200  0.44999500  0.55197800  1
  Zn  Zn268  1  0.76826300  0.29018900  0.55724800  1
  Zn  Zn269  1  0.25644400  0.80416700  0.62872900  1
  Zn  Zn270  1  0.31147000  0.14321700  0.61813200  1
  Zn  Zn271  1  0.95717300  0.29937500  0.63567800  1
  Zn  Zn272  1  0.74189700  0.12094800  0.56363600  1
  Zn  Zn273  1  0.36909100  0.01685900  0.57543600  1
  Zn  Zn274  1  0.53967300  0.44525900  0.60223200  1
  Zn  Zn275  1  0.07999500  0.05259100  0.55511600  1
  Zn  Zn276  1  0.70473500  0.41140700  0.59765400  1
  Zn  Zn277  1  0.81847500  0.54302700  0.60475400  1
  Zn  Zn278  1  0.82113000  0.04549300  0.60549000  1
  Zn  Zn279  1  0.05519900  0.89081300  0.56139500  1
  Zn  Zn280  1  0.18282200  0.79190200  0.57529500  1
  Zn  Zn281  1  0.76230200  0.70572900  0.61595000  1
  Zn  Zn282  1  0.93511200  0.67306400  0.61117700  1
  Zn  Zn283  1  0.40379800  0.18930500  0.57215700  1
  Zn  Zn284  1  0.34480200  0.85161300  0.58250300  1
  Zn  Zn285  1  0.48084500  0.10549500  0.61269100  1
  Zn  Zn286  1  0.36686400  0.47792300  0.60700500  1
  Zn  Zn287  1  0.99050500  0.00777100  0.60005000  1
  Zn  Zn288  1  0.65098800  0.07549400  0.60909100  1
  Zn  Zn289  1  0.87797200  0.37496100  0.59416100  1
  Zn  Zn290  1  0.79519200  0.45791400  0.55167300  1
  Zn  Zn291  1  0.02583600  0.71528800  0.56713600  1
  Zn  Zn292  1  0.42400400  0.77602700  0.62402000  1
  Zn  Zn293  1  0.45795700  0.52660900  0.56013700  1
  Zn  Zn294  1  0.42859500  0.35108400  0.56587800  1
  Zn  Zn295  1  0.68860100  0.78398300  0.57560000  1
  Zn  Zn296  1  0.04553100  0.34682100  0.58945300  1
  Zn  Zn297  1  0.24189700  0.12094800  0.56363600  1
  Zn  Zn298  1  0.59724000  0.73958100  0.62052800  1
  Zn  Zn299  1  0.48350100  0.60796000  0.61342800  1
  Zn  Zn300  1  0.71553000  0.95170700  0.57002500  1
  Zn  Zn301  1  0.93288400  0.13412900  0.64274500  1
  Zn  Zn302  1  0.11915400  0.35908600  0.64288700  1
  Zn  Zn303  1  0.58644500  0.19928000  0.64815700  1
  Zn  Zn304  1  0.07462600  0.71325800  0.71963800  1
  Zn  Zn305  1  0.12965200  0.05230700  0.70904100  1
  Zn  Zn306  1  0.77535500  0.20846600  0.72658700  1
  Zn  Zn307  1  0.56007800  0.03003900  0.65454500  1
  Zn  Zn308  1  0.18727300  0.92594900  0.66634600  1
  Zn  Zn309  1  0.35785500  0.35435000  0.69314100  1
  Zn  Zn310  1  0.89817700  0.96168200  0.64602500  1
  Zn  Zn311  1  0.52291700  0.32049800  0.68856300  1
  Zn  Zn312  1  0.63665600  0.45211800  0.69566300  1
  Zn  Zn313  1  0.63931200  0.95458400  0.69640000  1
  Zn  Zn314  1  0.87338000  0.79990400  0.65230400  1
  Zn  Zn315  1  0.00100300  0.70099300  0.66620400  1
  Zn  Zn316  1  0.58048400  0.61482000  0.70685900  1
  Zn  Zn317  1  0.75329300  0.58215500  0.70208600  1
  Zn  Zn318  1  0.22198000  0.09839600  0.66306600  1
  Zn  Zn319  1  0.16298400  0.76070300  0.67341300  1
  Zn  Zn320  1  0.29902700  0.01458500  0.70360000  1
  Zn  Zn321  1  0.18504500  0.38701400  0.69791400  1
  Zn  Zn322  1  0.80868700  0.91686200  0.69095900  1
  Zn  Zn323  1  0.46916900  0.98458500  0.70000000  1
  Zn  Zn324  1  0.69615300  0.28405200  0.68507100  1
  Zn  Zn325  1  0.61337400  0.36700500  0.64258200  1
  Zn  Zn326  1  0.84401800  0.62437900  0.65804500  1
  Zn  Zn327  1  0.24218500  0.68511800  0.71492900  1
  Zn  Zn328  1  0.27613900  0.43570000  0.65104600  1
  Zn  Zn329  1  0.24677600  0.26017500  0.65678700  1
  Zn  Zn330  1  0.50678300  0.69307300  0.66650900  1
  Zn  Zn331  1  0.86371300  0.25591200  0.68036200  1
  Zn  Zn332  1  0.06007800  0.03003900  0.65454500  1
  Zn  Zn333  1  0.41542200  0.64867200  0.71143700  1
  Zn  Zn334  1  0.30168200  0.51705100  0.70433700  1
  Zn  Zn335  1  0.53371200  0.86079800  0.66093400  1
  Zn  Zn336  1  0.75106600  0.04322000  0.73365400  1
  Zn  Zn337  1  0.93733500  0.26817600  0.73379600  1
  Zn  Zn338  1  0.40462700  0.10837100  0.73906600  1
  Zn  Zn339  1  0.37826000  0.93913000  0.74545500  1
  Zn  Zn340  1  0.00545500  0.83504000  0.75725500  1
  Zn  Zn341  1  0.71635900  0.87077300  0.73693400  1
  Zn  Zn342  1  0.69156200  0.70899500  0.74321300  1
  Zn  Zn343  1  0.81918500  0.61008400  0.75711300  1
  Zn  Zn344  1  0.04016200  0.00748700  0.75397500  1
  Zn  Zn345  1  0.43155600  0.27609600  0.73349100  1
  Zn  Zn346  1  0.66220000  0.53346900  0.74895400  1
  Zn  Zn347  1  0.09432100  0.34479100  0.74195500  1
  Zn  Zn348  1  0.06495800  0.16926600  0.74769600  1
  Zn  Zn349  1  0.32496500  0.60216400  0.75741800  1
  Zn  Zn350  1  0.87826000  0.93913000  0.74545500  1
  Zn  Zn351  1  0.35189400  0.76988900  0.75184300  1
