# generated using pymatgen
data_Sm7Mg4
_symmetry_space_group_name_H-M   'P 1'
_cell_length_a   3.79076100
_cell_length_b   5.59581600
_cell_length_c   52.10552400
_cell_angle_alpha   90.00000000
_cell_angle_beta   90.00000000
_cell_angle_gamma   90.00000000
_symmetry_Int_Tables_number   1
_chemical_formula_structural   Sm7Mg4
_chemical_formula_sum   'Sm14 Mg8'
_cell_volume   1105.28327232
_cell_formula_units_Z   2
loop_
 _symmetry_equiv_pos_site_id
 _symmetry_equiv_pos_as_xyz
  1  'x, y, z'
loop_
 _atom_site_type_symbol
 _atom_site_label
 _atom_site_symmetry_multiplicity
 _atom_site_fract_x
 _atom_site_fract_y
 _atom_site_fract_z
 _atom_site_occupancy
  Sm  Sm0  1  1.00000000  0.75000000  0.47417800  1
  Sm  Sm1  1  0.50000000  0.25000000  0.24804400  1
  Sm  Sm2  1  0.50000000  0.75000000  0.30751100  1
  Sm  Sm3  1  1.00000000  0.75000000  0.36827400  1
  Sm  Sm4  1  0.00000000  0.25000000  0.41471100  1
  Sm  Sm5  1  0.50000000  0.25000000  0.35394800  1
  Sm  Sm6  1  1.00000000  0.75000000  0.80751100  1
  Sm  Sm7  1  0.50000000  0.75000000  0.53494100  1
  Sm  Sm8  1  0.50000000  0.25000000  0.58137800  1
  Sm  Sm9  1  0.00000000  0.25000000  0.52061500  1
  Sm  Sm10  1  0.50000000  0.75000000  0.64084400  1
  Sm  Sm11  1  0.00000000  0.75000000  0.70160700  1
  Sm  Sm12  1  0.00000000  0.25000000  0.74804400  1
  Sm  Sm13  1  0.50000000  0.25000000  0.68728200  1
  Mg  Mg14  1  0.00000000  0.75000000  0.25502900  1
  Mg  Mg15  1  0.50000000  0.25000000  0.46719300  1
  Mg  Mg16  1  0.50000000  0.75000000  0.42169600  1
  Mg  Mg17  1  1.00000000  0.25000000  0.30052600  1
  Mg  Mg18  1  0.00000000  0.75000000  0.58836200  1
  Mg  Mg19  1  0.50000000  0.25000000  0.80052600  1
  Mg  Mg20  1  0.50000000  0.75000000  0.75502900  1
  Mg  Mg21  1  0.00000000  0.25000000  0.63386000  1
