# generated using pymatgen
data_Mg3Pt10
_symmetry_space_group_name_H-M   'P 1'
_cell_length_a   3.96879800
_cell_length_b   3.96879800
_cell_length_c   43.65677300
_cell_angle_alpha   90.00000000
_cell_angle_beta   90.00000000
_cell_angle_gamma   90.00000000
_symmetry_Int_Tables_number   1
_chemical_formula_structural   Mg3Pt10
_chemical_formula_sum   'Mg6 Pt20'
_cell_volume   687.65344165
_cell_formula_units_Z   2
loop_
 _symmetry_equiv_pos_site_id
 _symmetry_equiv_pos_as_xyz
  1  'x, y, z'
loop_
 _atom_site_type_symbol
 _atom_site_label
 _atom_site_symmetry_multiplicity
 _atom_site_fract_x
 _atom_site_fract_y
 _atom_site_fract_z
 _atom_site_occupancy
  Mg  Mg0  1  0.00000000  0.00000000  0.25000000  1
  Mg  Mg1  1  0.00000000  0.00000000  0.34090900  1
  Mg  Mg2  1  0.00000000  0.00000000  0.43181800  1
  Mg  Mg3  1  0.00000000  0.00000000  0.52272700  1
  Mg  Mg4  1  0.00000000  0.00000000  0.61363600  1
  Mg  Mg5  1  0.00000000  0.00000000  0.70454500  1
  Pt  Pt6  1  0.50000000  0.50000000  0.25000000  1
  Pt  Pt7  1  0.00000000  0.50000000  0.20454500  1
  Pt  Pt8  1  0.50000000  0.00000000  0.20454500  1
  Pt  Pt9  1  0.50000000  0.50000000  0.34090900  1
  Pt  Pt10  1  0.00000000  0.50000000  0.29545500  1
  Pt  Pt11  1  0.50000000  0.00000000  0.29545500  1
  Pt  Pt12  1  0.50000000  0.50000000  0.43181800  1
  Pt  Pt13  1  0.00000000  0.50000000  0.38636400  1
  Pt  Pt14  1  0.50000000  0.00000000  0.38636400  1
  Pt  Pt15  1  0.50000000  0.50000000  0.52272700  1
  Pt  Pt16  1  0.00000000  0.50000000  0.47727300  1
  Pt  Pt17  1  0.50000000  0.00000000  0.47727300  1
  Pt  Pt18  1  0.50000000  0.50000000  0.61363600  1
  Pt  Pt19  1  0.00000000  0.50000000  0.56818200  1
  Pt  Pt20  1  0.50000000  0.00000000  0.56818200  1
  Pt  Pt21  1  0.50000000  0.50000000  0.70454500  1
  Pt  Pt22  1  0.00000000  0.50000000  0.65909100  1
  Pt  Pt23  1  0.50000000  0.00000000  0.65909100  1
  Pt  Pt24  1  0.00000000  0.50000000  0.75000000  1
  Pt  Pt25  1  0.50000000  0.00000000  0.75000000  1
