# generated using pymatgen
data_Mg2Sc
_symmetry_space_group_name_H-M   'P 1'
_cell_length_a   6.13971348
_cell_length_b   8.45453099
_cell_length_c   43.60291500
_cell_angle_alpha   91.24883666
_cell_angle_beta   92.80791751
_cell_angle_gamma   95.84591880
_symmetry_Int_Tables_number   1
_chemical_formula_structural   Mg2Sc
_chemical_formula_sum   'Mg40 Sc20'
_cell_volume   2248.06610484
_cell_formula_units_Z   20
loop_
 _symmetry_equiv_pos_site_id
 _symmetry_equiv_pos_as_xyz
  1  'x, y, z'
loop_
 _atom_site_type_symbol
 _atom_site_label
 _atom_site_symmetry_multiplicity
 _atom_site_fract_x
 _atom_site_fract_y
 _atom_site_fract_z
 _atom_site_occupancy
  Mg  Mg0  1  0.08996400  0.44722100  0.22750900  1
  Mg  Mg1  1  0.00663000  0.80138000  0.24834300  1
  Mg  Mg2  1  0.66003600  0.99027900  0.20999100  1
  Mg  Mg3  1  0.74337000  0.63612000  0.18915700  1
  Mg  Mg4  1  0.83996400  0.50972100  0.29000900  1
  Mg  Mg5  1  0.75663000  0.86388000  0.31084300  1
  Mg  Mg6  1  0.41003600  0.05277900  0.27249100  1
  Mg  Mg7  1  0.49337000  0.69862000  0.25165700  1
  Mg  Mg8  1  0.58996400  0.57222100  0.35250900  1
  Mg  Mg9  1  0.50663000  0.92638000  0.37334300  1
  Mg  Mg10  1  0.16003600  0.11527900  0.33499100  1
  Mg  Mg11  1  0.24337000  0.76112000  0.31415700  1
  Mg  Mg12  1  0.33996400  0.63472100  0.41500900  1
  Mg  Mg13  1  0.25663000  0.98888000  0.43584300  1
  Mg  Mg14  1  0.91003600  0.17777900  0.39749100  1
  Mg  Mg15  1  0.99337000  0.82362000  0.37665700  1
  Mg  Mg16  1  0.08996400  0.69722100  0.47750900  1
  Mg  Mg17  1  0.00663000  0.05138000  0.49834300  1
  Mg  Mg18  1  0.66003600  0.24027900  0.45999100  1
  Mg  Mg19  1  0.74337000  0.88612000  0.43915700  1
  Mg  Mg20  1  0.83996400  0.75972100  0.54000900  1
  Mg  Mg21  1  0.75663000  0.11388000  0.56084300  1
  Mg  Mg22  1  0.41003600  0.30277900  0.52249100  1
  Mg  Mg23  1  0.49337000  0.94862000  0.50165700  1
  Mg  Mg24  1  0.58996400  0.82222100  0.60250900  1
  Mg  Mg25  1  0.50663000  0.17638000  0.62334300  1
  Mg  Mg26  1  0.16003600  0.36527900  0.58499100  1
  Mg  Mg27  1  0.24337000  0.01112000  0.56415700  1
  Mg  Mg28  1  0.33996400  0.88472100  0.66500900  1
  Mg  Mg29  1  0.25663000  0.23888000  0.68584300  1
  Mg  Mg30  1  0.91003600  0.42777900  0.64749100  1
  Mg  Mg31  1  0.99337000  0.07362000  0.62665700  1
  Mg  Mg32  1  0.08996400  0.94722100  0.72750900  1
  Mg  Mg33  1  0.00663000  0.30138000  0.74834300  1
  Mg  Mg34  1  0.66003600  0.49027900  0.70999100  1
  Mg  Mg35  1  0.74337000  0.13612000  0.68915700  1
  Mg  Mg36  1  0.83996400  0.00972100  0.79000900  1
  Mg  Mg37  1  0.75663000  0.36388000  0.81084300  1
  Mg  Mg38  1  0.41003600  0.55277900  0.77249100  1
  Mg  Mg39  1  0.49337000  0.19862000  0.75165700  1
  Sc  Sc40  1  0.17333000  0.09331100  0.20666700  1
  Sc  Sc41  1  0.57667000  0.34418900  0.23083300  1
  Sc  Sc42  1  0.92333000  0.15581100  0.26916700  1
  Sc  Sc43  1  0.32667000  0.40668900  0.29333300  1
  Sc  Sc44  1  0.67333000  0.21831100  0.33166700  1
  Sc  Sc45  1  0.07667000  0.46918900  0.35583300  1
  Sc  Sc46  1  0.42333000  0.28081100  0.39416700  1
  Sc  Sc47  1  0.82667000  0.53168900  0.41833300  1
  Sc  Sc48  1  0.17333000  0.34331100  0.45666700  1
  Sc  Sc49  1  0.57667000  0.59418900  0.48083300  1
  Sc  Sc50  1  0.92333000  0.40581100  0.51916700  1
  Sc  Sc51  1  0.32667000  0.65668900  0.54333300  1
  Sc  Sc52  1  0.67333000  0.46831100  0.58166700  1
  Sc  Sc53  1  0.07667000  0.71918900  0.60583300  1
  Sc  Sc54  1  0.42333000  0.53081100  0.64416700  1
  Sc  Sc55  1  0.82667000  0.78168900  0.66833300  1
  Sc  Sc56  1  0.17333000  0.59331100  0.70666700  1
  Sc  Sc57  1  0.57667000  0.84418900  0.73083300  1
  Sc  Sc58  1  0.92333000  0.65581100  0.76916700  1
  Sc  Sc59  1  0.32667000  0.90668900  0.79333300  1
