# generated using pymatgen
data_Ho2Mg
_symmetry_space_group_name_H-M   'P 1'
_cell_length_a   5.45155000
_cell_length_b   8.73039247
_cell_length_c   43.10006900
_cell_angle_alpha   90.72372495
_cell_angle_beta   90.00000000
_cell_angle_gamma   90.00000000
_symmetry_Int_Tables_number   1
_chemical_formula_structural   Ho2Mg
_chemical_formula_sum   'Ho28 Mg14'
_cell_volume   2051.14841300
_cell_formula_units_Z   14
loop_
 _symmetry_equiv_pos_site_id
 _symmetry_equiv_pos_as_xyz
  1  'x, y, z'
loop_
 _atom_site_type_symbol
 _atom_site_label
 _atom_site_symmetry_multiplicity
 _atom_site_fract_x
 _atom_site_fract_y
 _atom_site_fract_z
 _atom_site_occupancy
  Ho  Ho0  1  0.75000000  0.61345900  0.78391900  1
  Ho  Ho1  1  0.75000000  0.31071700  0.72727800  1
  Ho  Ho2  1  0.25000000  0.05320800  0.71608100  1
  Ho  Ho3  1  0.25000000  0.35595000  0.77272200  1
  Ho  Ho4  1  0.75000000  0.69679200  0.70058500  1
  Ho  Ho5  1  0.75000000  0.39405000  0.64394400  1
  Ho  Ho6  1  0.25000000  0.13654100  0.63274800  1
  Ho  Ho7  1  0.25000000  0.43928300  0.68938900  1
  Ho  Ho8  1  0.75000000  0.78012600  0.61725200  1
  Ho  Ho9  1  0.75000000  0.47738400  0.56061100  1
  Ho  Ho10  1  0.25000000  0.21987400  0.54941500  1
  Ho  Ho11  1  0.25000000  0.52261600  0.60605600  1
  Ho  Ho12  1  0.75000000  0.86345900  0.53391900  1
  Ho  Ho13  1  0.75000000  0.56071700  0.47727800  1
  Ho  Ho14  1  0.25000000  0.30320800  0.46608100  1
  Ho  Ho15  1  0.25000000  0.60595000  0.52272200  1
  Ho  Ho16  1  0.75000000  0.94679200  0.45058500  1
  Ho  Ho17  1  0.75000000  0.64405000  0.39394400  1
  Ho  Ho18  1  0.25000000  0.38654100  0.38274800  1
  Ho  Ho19  1  0.25000000  0.68928300  0.43938900  1
  Ho  Ho20  1  0.75000000  0.03012600  0.36725200  1
  Ho  Ho21  1  0.75000000  0.72738400  0.31061100  1
  Ho  Ho22  1  0.25000000  0.46987400  0.29941500  1
  Ho  Ho23  1  0.25000000  0.77261600  0.35605600  1
  Ho  Ho24  1  0.75000000  0.11345900  0.28391900  1
  Ho  Ho25  1  0.75000000  0.81071700  0.22727800  1
  Ho  Ho26  1  0.25000000  0.55320800  0.21608100  1
  Ho  Ho27  1  0.25000000  0.85595000  0.27272200  1
  Mg  Mg28  1  0.75000000  0.96018100  0.75551500  1
  Mg  Mg29  1  0.25000000  0.70648600  0.74448500  1
  Mg  Mg30  1  0.75000000  0.04351400  0.67218200  1
  Mg  Mg31  1  0.25000000  0.78981900  0.66115200  1
  Mg  Mg32  1  0.75000000  0.12684800  0.58884800  1
  Mg  Mg33  1  0.25000000  0.87315200  0.57781800  1
  Mg  Mg34  1  0.75000000  0.21018100  0.50551500  1
  Mg  Mg35  1  0.25000000  0.95648600  0.49448500  1
  Mg  Mg36  1  0.75000000  0.29351400  0.42218200  1
  Mg  Mg37  1  0.25000000  0.03981900  0.41115200  1
  Mg  Mg38  1  0.75000000  0.37684800  0.33884800  1
  Mg  Mg39  1  0.25000000  0.12315200  0.32781800  1
  Mg  Mg40  1  0.75000000  0.46018100  0.25551500  1
  Mg  Mg41  1  0.25000000  0.20648600  0.24448500  1
