# generated using pymatgen
data_MgGa
_symmetry_space_group_name_H-M   'P 1'
_cell_length_a   5.53544100
_cell_length_b   8.03816804
_cell_length_c   45.27987700
_cell_angle_alpha   90.00000000
_cell_angle_beta   90.00000000
_cell_angle_gamma   110.14043569
_symmetry_Int_Tables_number   1
_chemical_formula_structural   MgGa
_chemical_formula_sum   'Mg32 Ga32'
_cell_volume   1891.52220127
_cell_formula_units_Z   32
loop_
 _symmetry_equiv_pos_site_id
 _symmetry_equiv_pos_as_xyz
  1  'x, y, z'
loop_
 _atom_site_type_symbol
 _atom_site_label
 _atom_site_symmetry_multiplicity
 _atom_site_fract_x
 _atom_site_fract_y
 _atom_site_fract_z
 _atom_site_occupancy
  Mg  Mg0  1  0.25472100  0.04516100  0.69843200  1
  Mg  Mg1  1  0.86315600  0.19059200  0.74247300  1
  Mg  Mg2  1  0.92256400  0.30940800  0.67419400  1
  Mg  Mg3  1  0.45955900  0.45483900  0.71823500  1
  Mg  Mg4  1  0.29044100  0.54516100  0.78176500  1
  Mg  Mg5  1  0.82743600  0.69059200  0.82580600  1
  Mg  Mg6  1  0.88684400  0.80940800  0.75752700  1
  Mg  Mg7  1  0.49527900  0.95483900  0.80156800  1
  Mg  Mg8  1  0.75472100  0.04516100  0.53176500  1
  Mg  Mg9  1  0.36315600  0.19059200  0.57580600  1
  Mg  Mg10  1  0.42256400  0.30940800  0.50752700  1
  Mg  Mg11  1  0.95955900  0.45483900  0.55156800  1
  Mg  Mg12  1  0.79044100  0.54516100  0.61509900  1
  Mg  Mg13  1  0.32743600  0.69059200  0.65914000  1
  Mg  Mg14  1  0.38684400  0.80940800  0.59086000  1
  Mg  Mg15  1  0.99527900  0.95483900  0.63490100  1
  Mg  Mg16  1  0.25472100  0.04516100  0.36509900  1
  Mg  Mg17  1  0.86315600  0.19059200  0.40914000  1
  Mg  Mg18  1  0.92256400  0.30940800  0.34086000  1
  Mg  Mg19  1  0.45955900  0.45483900  0.38490100  1
  Mg  Mg20  1  0.29044100  0.54516100  0.44843200  1
  Mg  Mg21  1  0.82743600  0.69059200  0.49247300  1
  Mg  Mg22  1  0.88684400  0.80940800  0.42419400  1
  Mg  Mg23  1  0.49527900  0.95483900  0.46823500  1
  Mg  Mg24  1  0.75472100  0.04516100  0.19843200  1
  Mg  Mg25  1  0.36315600  0.19059200  0.24247300  1
  Mg  Mg26  1  0.42256400  0.30940800  0.17419400  1
  Mg  Mg27  1  0.95955900  0.45483900  0.21823500  1
  Mg  Mg28  1  0.79044100  0.54516100  0.28176500  1
  Mg  Mg29  1  0.32743600  0.69059200  0.32580600  1
  Mg  Mg30  1  0.38684400  0.80940800  0.25752700  1
  Mg  Mg31  1  0.99527900  0.95483900  0.30156800  1
  Ga  Ga32  1  0.03367700  0.05574500  0.80695600  1
  Ga  Ga33  1  0.33493600  0.15826300  0.75929100  1
  Ga  Ga34  1  0.92667300  0.34173700  0.82404300  1
  Ga  Ga35  1  0.72793200  0.44425500  0.77637700  1
  Ga  Ga36  1  0.02206800  0.55574500  0.72362300  1
  Ga  Ga37  1  0.82332700  0.65826300  0.67595700  1
  Ga  Ga38  1  0.41506400  0.84173700  0.74070900  1
  Ga  Ga39  1  0.71632300  0.94425500  0.69304400  1
  Ga  Ga40  1  0.53367700  0.05574500  0.64028900  1
  Ga  Ga41  1  0.83493600  0.15826300  0.59262400  1
  Ga  Ga42  1  0.42667300  0.34173700  0.65737600  1
  Ga  Ga43  1  0.22793200  0.44425500  0.60971100  1
  Ga  Ga44  1  0.52206800  0.55574500  0.55695600  1
  Ga  Ga45  1  0.32332700  0.65826300  0.50929100  1
  Ga  Ga46  1  0.91506400  0.84173700  0.57404300  1
  Ga  Ga47  1  0.21632300  0.94425500  0.52637700  1
  Ga  Ga48  1  0.03367700  0.05574500  0.47362300  1
  Ga  Ga49  1  0.33493600  0.15826300  0.42595700  1
  Ga  Ga50  1  0.92667300  0.34173700  0.49070900  1
  Ga  Ga51  1  0.72793200  0.44425500  0.44304400  1
  Ga  Ga52  1  0.02206800  0.55574500  0.39028900  1
  Ga  Ga53  1  0.82332700  0.65826300  0.34262400  1
  Ga  Ga54  1  0.41506400  0.84173700  0.40737600  1
  Ga  Ga55  1  0.71632300  0.94425500  0.35971100  1
  Ga  Ga56  1  0.53367700  0.05574500  0.30695600  1
  Ga  Ga57  1  0.83493600  0.15826300  0.25929100  1
  Ga  Ga58  1  0.42667300  0.34173700  0.32404300  1
  Ga  Ga59  1  0.22793200  0.44425500  0.27637700  1
  Ga  Ga60  1  0.52206800  0.55574500  0.22362300  1
  Ga  Ga61  1  0.32332700  0.65826300  0.17595700  1
  Ga  Ga62  1  0.91506400  0.84173700  0.24070900  1
  Ga  Ga63  1  0.21632300  0.94425500  0.19304400  1
