# generated using pymatgen
data_Mg24Ir53
_symmetry_space_group_name_H-M   'P 1'
_cell_length_a   5.21013629
_cell_length_b   9.93407682
_cell_length_c   44.06856100
_cell_angle_alpha   96.15496522
_cell_angle_beta   93.38895847
_cell_angle_gamma   74.79724947
_symmetry_Int_Tables_number   1
_chemical_formula_structural   Mg24Ir53
_chemical_formula_sum   'Mg24 Ir53'
_cell_volume   2187.24305336
_cell_formula_units_Z   1
loop_
 _symmetry_equiv_pos_site_id
 _symmetry_equiv_pos_as_xyz
  1  'x, y, z'
loop_
 _atom_site_type_symbol
 _atom_site_label
 _atom_site_symmetry_multiplicity
 _atom_site_fract_x
 _atom_site_fract_y
 _atom_site_fract_z
 _atom_site_occupancy
  Mg  Mg0  1  0.94106600  0.37290400  0.27521600  1
  Mg  Mg1  1  0.21379300  0.84260100  0.29036700  1
  Mg  Mg2  1  0.08218400  0.13872100  0.32326900  1
  Mg  Mg3  1  0.80945700  0.66902400  0.30811800  1
  Mg  Mg4  1  0.57742900  0.19108600  0.36612500  1
  Mg  Mg5  1  0.85015700  0.66078300  0.38127600  1
  Mg  Mg6  1  0.71854800  0.95690200  0.41417800  1
  Mg  Mg7  1  0.44582100  0.48720600  0.39902700  1
  Mg  Mg8  1  0.21379300  0.00926800  0.45703400  1
  Mg  Mg9  1  0.48652000  0.47896500  0.47218500  1
  Mg  Mg10  1  0.35491200  0.77508400  0.50508700  1
  Mg  Mg11  1  0.08218400  0.30538700  0.48993600  1
  Mg  Mg12  1  0.85015700  0.82745000  0.54794300  1
  Mg  Mg13  1  0.12288400  0.29714700  0.56309400  1
  Mg  Mg14  1  0.99127500  0.59326600  0.59599700  1
  Mg  Mg15  1  0.71854800  0.12356900  0.58084500  1
  Mg  Mg16  1  0.48652000  0.64563200  0.63885200  1
  Mg  Mg17  1  0.75924700  0.11532900  0.65400300  1
  Mg  Mg18  1  0.62763900  0.41144800  0.68690600  1
  Mg  Mg19  1  0.35491200  0.94175100  0.67175400  1
  Mg  Mg20  1  0.12288400  0.46381300  0.72976100  1
  Mg  Mg21  1  0.39561100  0.93351000  0.74491300  1
  Mg  Mg22  1  0.26400200  0.22963000  0.77781500  1
  Mg  Mg23  1  0.99127500  0.75993300  0.76266300  1
  Ir  Ir24  1  0.69344300  0.84672200  0.25378800  1
  Ir  Ir25  1  0.32146000  0.08249700  0.26090000  1
  Ir  Ir26  1  0.83676300  0.08249700  0.26090000  1
  Ir  Ir27  1  0.55012400  0.61094600  0.24667600  1
  Ir  Ir28  1  0.06542600  0.61094600  0.24667600  1
  Ir  Ir29  1  0.51162500  0.25581200  0.29924200  1
  Ir  Ir30  1  0.32980700  0.66490300  0.34469700  1
  Ir  Ir31  1  0.37387000  0.52281900  0.29073900  1
  Ir  Ir32  1  0.95782300  0.90067900  0.35180900  1
  Ir  Ir33  1  0.47312600  0.90067900  0.35180900  1
  Ir  Ir34  1  0.18648700  0.42912700  0.33758500  1
  Ir  Ir35  1  0.70179000  0.42912700  0.33758500  1
  Ir  Ir36  1  0.64938000  0.98880600  0.30774600  1
  Ir  Ir37  1  0.14798900  0.07399400  0.39015200  1
  Ir  Ir38  1  0.96617000  0.48308500  0.43560600  1
  Ir  Ir39  1  0.01023400  0.34100100  0.38164800  1
  Ir  Ir40  1  0.59418700  0.71886100  0.44271800  1
  Ir  Ir41  1  0.10949000  0.71886100  0.44271800  1
  Ir  Ir42  1  0.82285100  0.24730900  0.42849400  1
  Ir  Ir43  1  0.33815400  0.24730900  0.42849400  1
  Ir  Ir44  1  0.28574300  0.80698800  0.39865500  1
  Ir  Ir45  1  0.78435200  0.89217600  0.48106100  1
  Ir  Ir46  1  0.60253400  0.30126700  0.52651500  1
  Ir  Ir47  1  0.64659700  0.15918200  0.47255700  1
  Ir  Ir48  1  0.23055100  0.53704300  0.53362700  1
  Ir  Ir49  1  0.74585300  0.53704300  0.53362700  1
  Ir  Ir50  1  0.45921500  0.06549100  0.51940300  1
  Ir  Ir51  1  0.97451700  0.06549100  0.51940300  1
  Ir  Ir52  1  0.92210700  0.62517000  0.48956400  1
  Ir  Ir53  1  0.42071600  0.71035800  0.57197000  1
  Ir  Ir54  1  0.23889800  0.11944900  0.61742400  1
  Ir  Ir55  1  0.28296100  0.97736400  0.56346700  1
  Ir  Ir56  1  0.86691400  0.35522500  0.62453600  1
  Ir  Ir57  1  0.38221700  0.35522500  0.62453600  1
  Ir  Ir58  1  0.09557800  0.88367300  0.61031200  1
  Ir  Ir59  1  0.61088100  0.88367300  0.61031200  1
  Ir  Ir60  1  0.55847100  0.44335200  0.58047300  1
  Ir  Ir61  1  0.05707900  0.52854000  0.66287900  1
  Ir  Ir62  1  0.87526100  0.93763100  0.70833300  1
  Ir  Ir63  1  0.91932500  0.79554600  0.65437600  1
  Ir  Ir64  1  0.50327800  0.17340700  0.71544500  1
  Ir  Ir65  1  0.01858100  0.17340700  0.71544500  1
  Ir  Ir66  1  0.73194200  0.70185500  0.70122100  1
  Ir  Ir67  1  0.24724500  0.70185500  0.70122100  1
  Ir  Ir68  1  0.19483400  0.26153300  0.67138200  1
  Ir  Ir69  1  0.69344300  0.34672200  0.75378800  1
  Ir  Ir70  1  0.51162500  0.75581200  0.79924200  1
  Ir  Ir71  1  0.55568800  0.61372800  0.74528500  1
  Ir  Ir72  1  0.13964200  0.99158800  0.80635400  1
  Ir  Ir73  1  0.65494400  0.99158800  0.80635400  1
  Ir  Ir74  1  0.36830600  0.52003700  0.79213000  1
  Ir  Ir75  1  0.88360800  0.52003700  0.79213000  1
  Ir  Ir76  1  0.83119800  0.07971500  0.76229100  1
