# generated using pymatgen
data_Mg10Ir23
_symmetry_space_group_name_H-M   'P 1'
_cell_length_a   5.21013600
_cell_length_b   8.45815400
_cell_length_c   45.12110200
_cell_angle_alpha   90.00000000
_cell_angle_beta   90.00000000
_cell_angle_gamma   90.00000000
_symmetry_Int_Tables_number   1
_chemical_formula_structural   Mg10Ir23
_chemical_formula_sum   'Mg20 Ir46'
_cell_volume   1988.40270820
_cell_formula_units_Z   2
loop_
 _symmetry_equiv_pos_site_id
 _symmetry_equiv_pos_as_xyz
  1  'x, y, z'
loop_
 _atom_site_type_symbol
 _atom_site_label
 _atom_site_symmetry_multiplicity
 _atom_site_fract_x
 _atom_site_fract_y
 _atom_site_fract_z
 _atom_site_occupancy
  Mg  Mg0  1  0.62882600  0.56903800  0.34166700  1
  Mg  Mg1  1  0.12882600  0.06903800  0.30833300  1
  Mg  Mg2  1  0.12882600  0.43096200  0.30833300  1
  Mg  Mg3  1  0.62882600  0.93096200  0.34166700  1
  Mg  Mg4  1  0.12882600  0.56903800  0.44166700  1
  Mg  Mg5  1  0.62882600  0.06903800  0.40833300  1
  Mg  Mg6  1  0.62882600  0.43096200  0.40833300  1
  Mg  Mg7  1  0.12882600  0.93096200  0.44166700  1
  Mg  Mg8  1  0.62882600  0.56903800  0.54166700  1
  Mg  Mg9  1  0.12882600  0.06903800  0.50833300  1
  Mg  Mg10  1  0.12882600  0.43096200  0.50833300  1
  Mg  Mg11  1  0.62882600  0.93096200  0.54166700  1
  Mg  Mg12  1  0.12882600  0.56903800  0.64166700  1
  Mg  Mg13  1  0.62882600  0.06903800  0.60833300  1
  Mg  Mg14  1  0.62882600  0.43096200  0.60833300  1
  Mg  Mg15  1  0.12882600  0.93096200  0.64166700  1
  Mg  Mg16  1  0.62882600  0.56903800  0.74166700  1
  Mg  Mg17  1  0.12882600  0.06903800  0.70833300  1
  Mg  Mg18  1  0.12882600  0.43096200  0.70833300  1
  Mg  Mg19  1  0.62882600  0.93096200  0.74166700  1
  Ir  Ir20  1  0.62882600  0.50000000  0.27500000  1
  Ir  Ir21  1  0.62882600  0.00000000  0.27500000  1
  Ir  Ir22  1  0.37117400  0.25000000  0.25782300  1
  Ir  Ir23  1  0.88647700  0.25000000  0.25782300  1
  Ir  Ir24  1  0.37117400  0.75000000  0.29217700  1
  Ir  Ir25  1  0.88647700  0.75000000  0.29217700  1
  Ir  Ir26  1  0.12882600  0.50000000  0.37500000  1
  Ir  Ir27  1  0.12882600  0.00000000  0.37500000  1
  Ir  Ir28  1  0.12882600  0.75000000  0.34064600  1
  Ir  Ir29  1  0.87117400  0.25000000  0.35782300  1
  Ir  Ir30  1  0.38647700  0.25000000  0.35782300  1
  Ir  Ir31  1  0.87117400  0.75000000  0.39217700  1
  Ir  Ir32  1  0.38647700  0.75000000  0.39217700  1
  Ir  Ir33  1  0.62882600  0.25000000  0.30935400  1
  Ir  Ir34  1  0.62882600  0.50000000  0.47500000  1
  Ir  Ir35  1  0.62882600  0.00000000  0.47500000  1
  Ir  Ir36  1  0.62882600  0.75000000  0.44064600  1
  Ir  Ir37  1  0.37117400  0.25000000  0.45782300  1
  Ir  Ir38  1  0.88647700  0.25000000  0.45782300  1
  Ir  Ir39  1  0.37117400  0.75000000  0.49217700  1
  Ir  Ir40  1  0.88647700  0.75000000  0.49217700  1
  Ir  Ir41  1  0.12882600  0.25000000  0.40935400  1
  Ir  Ir42  1  0.12882600  0.50000000  0.57500000  1
  Ir  Ir43  1  0.12882600  0.00000000  0.57500000  1
  Ir  Ir44  1  0.12882600  0.75000000  0.54064600  1
  Ir  Ir45  1  0.87117400  0.25000000  0.55782300  1
  Ir  Ir46  1  0.38647700  0.25000000  0.55782300  1
  Ir  Ir47  1  0.87117400  0.75000000  0.59217700  1
  Ir  Ir48  1  0.38647700  0.75000000  0.59217700  1
  Ir  Ir49  1  0.62882600  0.25000000  0.50935400  1
  Ir  Ir50  1  0.62882600  0.50000000  0.67500000  1
  Ir  Ir51  1  0.62882600  0.00000000  0.67500000  1
  Ir  Ir52  1  0.62882600  0.75000000  0.64064600  1
  Ir  Ir53  1  0.37117400  0.25000000  0.65782300  1
  Ir  Ir54  1  0.88647700  0.25000000  0.65782300  1
  Ir  Ir55  1  0.37117400  0.75000000  0.69217700  1
  Ir  Ir56  1  0.88647700  0.75000000  0.69217700  1
  Ir  Ir57  1  0.12882600  0.25000000  0.60935400  1
  Ir  Ir58  1  0.12882600  0.50000000  0.77500000  1
  Ir  Ir59  1  0.12882600  0.00000000  0.77500000  1
  Ir  Ir60  1  0.12882600  0.75000000  0.74064600  1
  Ir  Ir61  1  0.87117400  0.25000000  0.75782300  1
  Ir  Ir62  1  0.38647700  0.25000000  0.75782300  1
  Ir  Ir63  1  0.87117400  0.75000000  0.79217700  1
  Ir  Ir64  1  0.38647700  0.75000000  0.79217700  1
  Ir  Ir65  1  0.62882600  0.25000000  0.70935400  1
