# generated using pymatgen
data_Mg104Zn185
_symmetry_space_group_name_H-M   'P 1'
_cell_length_a   13.26606255
_cell_length_b   15.58232770
_cell_length_c   46.38065300
_cell_angle_alpha   94.29618326
_cell_angle_beta   88.49627591
_cell_angle_gamma   99.94210053
_symmetry_Int_Tables_number   1
_chemical_formula_structural   Mg104Zn185
_chemical_formula_sum   'Mg104 Zn185'
_cell_volume   9416.24935325
_cell_formula_units_Z   1
loop_
 _symmetry_equiv_pos_site_id
 _symmetry_equiv_pos_as_xyz
  1  'x, y, z'
loop_
 _atom_site_type_symbol
 _atom_site_label
 _atom_site_symmetry_multiplicity
 _atom_site_fract_x
 _atom_site_fract_y
 _atom_site_fract_z
 _atom_site_occupancy
  Mg  Mg0  1  0.80542600  0.87797100  0.27689900  1
  Mg  Mg1  1  0.01693200  0.94438700  0.29764600  1
  Mg  Mg2  1  0.55467400  0.58749500  0.28714100  1
  Mg  Mg3  1  0.26768400  0.23486300  0.28740400  1
  Mg  Mg4  1  0.63262200  0.78343700  0.31483500  1
  Mg  Mg5  1  0.95520000  0.59939100  0.31248600  1
  Mg  Mg6  1  0.50569100  0.24822900  0.30253900  1
  Mg  Mg7  1  0.70542600  0.77797100  0.37689900  1
  Mg  Mg8  1  0.82189100  0.45472700  0.34588000  1
  Mg  Mg9  1  0.45179800  0.90810000  0.31840500  1
  Mg  Mg10  1  0.58596900  0.44397900  0.33101700  1
  Mg  Mg11  1  0.91693200  0.84438700  0.39764600  1
  Mg  Mg12  1  0.45467400  0.48749500  0.38714100  1
  Mg  Mg13  1  0.90046700  0.26763100  0.32866600  1
  Mg  Mg14  1  0.21666600  0.47412800  0.37200600  1
  Mg  Mg15  1  0.16768400  0.13486300  0.38740400  1
  Mg  Mg16  1  0.88347600  0.77477900  0.32858400  1
  Mg  Mg17  1  0.53354800  0.10312200  0.34650000  1
  Mg  Mg18  1  0.18880900  0.61923500  0.32804600  1
  Mg  Mg19  1  0.13638800  0.27837900  0.34352800  1
  Mg  Mg20  1  0.08973500  0.93892100  0.35971100  1
  Mg  Mg21  1  0.27056000  0.81425800  0.35614000  1
  Mg  Mg22  1  0.76715700  0.12296700  0.36206000  1
  Mg  Mg23  1  0.83888200  0.94757900  0.34596100  1
  Mg  Mg24  1  0.53262200  0.68343700  0.41483500  1
  Mg  Mg25  1  0.85520000  0.49939100  0.41248600  1
  Mg  Mg26  1  0.40569100  0.14822900  0.40253900  1
  Mg  Mg27  1  0.60542600  0.67797100  0.47689900  1
  Mg  Mg28  1  0.72189100  0.35472700  0.44588000  1
  Mg  Mg29  1  0.35179800  0.80810000  0.41840500  1
  Mg  Mg30  1  0.48596900  0.34397900  0.43101700  1
  Mg  Mg31  1  0.81693200  0.74438700  0.49764600  1
  Mg  Mg32  1  0.35467400  0.38749500  0.48714100  1
  Mg  Mg33  1  0.80046700  0.16763100  0.42866600  1
  Mg  Mg34  1  0.11666600  0.37412800  0.47200600  1
  Mg  Mg35  1  0.06768400  0.03486300  0.48740400  1
  Mg  Mg36  1  0.78347600  0.67477900  0.42858400  1
  Mg  Mg37  1  0.43354800  0.00312200  0.44650000  1
  Mg  Mg38  1  0.08880900  0.51923500  0.42804600  1
  Mg  Mg39  1  0.03638800  0.17837900  0.44352800  1
  Mg  Mg40  1  0.98973500  0.83892100  0.45971100  1
  Mg  Mg41  1  0.17056000  0.71425800  0.45614000  1
  Mg  Mg42  1  0.66715700  0.02296700  0.46206000  1
  Mg  Mg43  1  0.73888200  0.84757900  0.44596100  1
  Mg  Mg44  1  0.43262200  0.58343700  0.51483500  1
  Mg  Mg45  1  0.75520000  0.39939100  0.51248600  1
  Mg  Mg46  1  0.30569100  0.04822900  0.50253900  1
  Mg  Mg47  1  0.50542600  0.57797100  0.57689900  1
  Mg  Mg48  1  0.62189100  0.25472700  0.54588000  1
  Mg  Mg49  1  0.25179800  0.70810000  0.51840500  1
  Mg  Mg50  1  0.38596900  0.24397900  0.53101700  1
  Mg  Mg51  1  0.71693200  0.64438700  0.59764600  1
  Mg  Mg52  1  0.25467400  0.28749500  0.58714100  1
  Mg  Mg53  1  0.70046700  0.06763100  0.52866600  1
  Mg  Mg54  1  0.01666600  0.27412800  0.57200600  1
  Mg  Mg55  1  0.96768400  0.93486300  0.58740400  1
  Mg  Mg56  1  0.68347600  0.57477900  0.52858400  1
  Mg  Mg57  1  0.33354800  0.90312200  0.54650000  1
  Mg  Mg58  1  0.98880900  0.41923500  0.52804600  1
  Mg  Mg59  1  0.93638800  0.07837900  0.54352800  1
  Mg  Mg60  1  0.88973500  0.73892100  0.55971100  1
  Mg  Mg61  1  0.07056000  0.61425800  0.55614000  1
  Mg  Mg62  1  0.56715700  0.92296700  0.56206000  1
  Mg  Mg63  1  0.63888200  0.74757900  0.54596100  1
  Mg  Mg64  1  0.33262200  0.48343700  0.61483500  1
  Mg  Mg65  1  0.65520000  0.29939100  0.61248600  1
  Mg  Mg66  1  0.20569100  0.94822900  0.60253900  1
  Mg  Mg67  1  0.40542600  0.47797100  0.67689900  1
  Mg  Mg68  1  0.52189100  0.15472700  0.64588000  1
  Mg  Mg69  1  0.15179800  0.60810000  0.61840500  1
  Mg  Mg70  1  0.28596900  0.14397900  0.63101700  1
  Mg  Mg71  1  0.61693200  0.54438700  0.69764600  1
  Mg  Mg72  1  0.15467400  0.18749500  0.68714100  1
  Mg  Mg73  1  0.60046700  0.96763100  0.62866600  1
  Mg  Mg74  1  0.91666600  0.17412800  0.67200600  1
  Mg  Mg75  1  0.86768400  0.83486300  0.68740400  1
  Mg  Mg76  1  0.58347600  0.47477900  0.62858400  1
  Mg  Mg77  1  0.23354800  0.80312200  0.64650000  1
  Mg  Mg78  1  0.88880900  0.31923500  0.62804600  1
  Mg  Mg79  1  0.83638800  0.97837900  0.64352800  1
  Mg  Mg80  1  0.78973500  0.63892100  0.65971100  1
  Mg  Mg81  1  0.97056000  0.51425800  0.65614000  1
  Mg  Mg82  1  0.46715700  0.82296700  0.66206000  1
  Mg  Mg83  1  0.53888200  0.64757900  0.64596100  1
  Mg  Mg84  1  0.23262200  0.38343700  0.71483500  1
  Mg  Mg85  1  0.55520000  0.19939100  0.71248600  1
  Mg  Mg86  1  0.10569100  0.84822900  0.70253900  1
  Mg  Mg87  1  0.30542600  0.37797100  0.77689900  1
  Mg  Mg88  1  0.42189100  0.05472700  0.74588000  1
  Mg  Mg89  1  0.05179800  0.50810000  0.71840500  1
  Mg  Mg90  1  0.18596900  0.04397900  0.73101700  1
  Mg  Mg91  1  0.51693200  0.44438700  0.79764600  1
  Mg  Mg92  1  0.05467400  0.08749500  0.78714100  1
  Mg  Mg93  1  0.50046700  0.86763100  0.72866600  1
  Mg  Mg94  1  0.81666600  0.07412800  0.77200600  1
  Mg  Mg95  1  0.76768400  0.73486300  0.78740400  1
  Mg  Mg96  1  0.48347600  0.37477900  0.72858400  1
  Mg  Mg97  1  0.13354800  0.70312200  0.74650000  1
  Mg  Mg98  1  0.78880900  0.21923500  0.72804600  1
  Mg  Mg99  1  0.73638800  0.87837900  0.74352800  1
  Mg  Mg100  1  0.68973500  0.53892100  0.75971100  1
  Mg  Mg101  1  0.87056000  0.41425800  0.75614000  1
  Mg  Mg102  1  0.36715700  0.72296700  0.76206000  1
  Mg  Mg103  1  0.43888200  0.54757900  0.74596100  1
  Zn  Zn104  1  0.75828500  0.50136900  0.28937200  1
  Zn  Zn105  1  0.77722900  0.66833700  0.28058300  1
  Zn  Zn106  1  0.06407300  0.32098800  0.28517300  1
  Zn  Zn107  1  0.28118800  0.76912700  0.29223100  1
  Zn  Zn108  1  0.72371500  0.32578000  0.29579500  1
  Zn  Zn109  1  0.54117000  0.05323100  0.28231400  1
  Zn  Zn110  1  0.09864300  0.49657800  0.27875100  1
  Zn  Zn111  1  0.04512800  0.15402000  0.29396300  1
  Zn  Zn112  1  0.41117900  0.41117900  0.28727300  1
  Zn  Zn113  1  0.91117900  0.41117900  0.28727300  1
  Zn  Zn114  1  0.65828500  0.40136900  0.38937200  1
  Zn  Zn115  1  0.86333700  0.64496700  0.37087200  1
  Zn  Zn116  1  0.38315400  0.53241800  0.32888600  1
  Zn  Zn117  1  0.99878200  0.10236100  0.34440100  1
  Zn  Zn118  1  0.04765500  0.44585400  0.32936200  1
  Zn  Zn119  1  0.67722900  0.56833700  0.38058300  1
  Zn  Zn120  1  0.36117900  0.36117900  0.33727300  1
  Zn  Zn121  1  0.96407300  0.22098800  0.38517300  1
  Zn  Zn122  1  0.18118800  0.66912700  0.39223100  1
  Zn  Zn123  1  0.62371500  0.22578000  0.39579500  1
  Zn  Zn124  1  0.35772000  0.65132300  0.37160500  1
  Zn  Zn125  1  0.49064300  0.79502700  0.36662000  1
  Zn  Zn126  1  0.49437500  0.29783200  0.36701800  1
  Zn  Zn127  1  0.70334500  0.16214900  0.30392500  1
  Zn  Zn128  1  0.85902100  0.07739100  0.30367300  1
  Zn  Zn129  1  0.44117000  0.95323100  0.38231400  1
  Zn  Zn130  1  0.62601000  0.93737100  0.36073800  1
  Zn  Zn131  1  0.99864300  0.39657800  0.37875100  1
  Zn  Zn132  1  0.94512800  0.05402000  0.39396300  1
  Zn  Zn133  1  0.22798300  0.42452500  0.30752700  1
  Zn  Zn134  1  0.09634800  0.78498700  0.31380700  1
  Zn  Zn135  1  0.67470300  0.27650400  0.34518400  1
  Zn  Zn136  1  0.31117900  0.31117900  0.38727300  1
  Zn  Zn137  1  0.54443900  0.63185100  0.35113800  1
  Zn  Zn138  1  0.40664400  0.70227800  0.32117600  1
  Zn  Zn139  1  0.67736100  0.98426200  0.31202800  1
  Zn  Zn140  1  0.17791900  0.09050600  0.32340800  1
  Zn  Zn141  1  0.04499600  0.73809600  0.36251700  1
  Zn  Zn142  1  0.01901200  0.56020800  0.37062000  1
  Zn  Zn143  1  0.31571400  0.02008000  0.35336900  1
  Zn  Zn144  1  0.72357600  0.61999700  0.33014400  1
  Zn  Zn145  1  0.81117900  0.31117900  0.38727300  1
  Zn  Zn146  1  0.36463700  0.07103500  0.30294100  1
  Zn  Zn147  1  0.23171400  0.92733000  0.30792500  1
  Zn  Zn148  1  0.33920400  0.18994000  0.34565900  1
  Zn  Zn149  1  0.55828500  0.30136900  0.48937200  1
  Zn  Zn150  1  0.76333700  0.54496700  0.47087200  1
  Zn  Zn151  1  0.28315400  0.43241800  0.42888600  1
  Zn  Zn152  1  0.89878200  0.00236100  0.44440100  1
  Zn  Zn153  1  0.94765500  0.34585400  0.42936200  1
  Zn  Zn154  1  0.57722900  0.46833700  0.48058300  1
  Zn  Zn155  1  0.26117900  0.26117900  0.43727300  1
  Zn  Zn156  1  0.86407300  0.12098800  0.48517300  1
  Zn  Zn157  1  0.08118800  0.56912700  0.49223100  1
  Zn  Zn158  1  0.52371500  0.12578000  0.49579500  1
  Zn  Zn159  1  0.25772000  0.55132300  0.47160500  1
  Zn  Zn160  1  0.39064300  0.69502700  0.46662000  1
  Zn  Zn161  1  0.39437500  0.19783200  0.46701800  1
  Zn  Zn162  1  0.60334500  0.06214900  0.40392500  1
  Zn  Zn163  1  0.75902100  0.97739100  0.40367300  1
  Zn  Zn164  1  0.34117000  0.85323100  0.48231400  1
  Zn  Zn165  1  0.52601000  0.83737100  0.46073800  1
  Zn  Zn166  1  0.89864300  0.29657800  0.47875100  1
  Zn  Zn167  1  0.84512800  0.95402000  0.49396300  1
  Zn  Zn168  1  0.12798300  0.32452500  0.40752700  1
  Zn  Zn169  1  0.99634800  0.68498700  0.41380700  1
  Zn  Zn170  1  0.57470300  0.17650400  0.44518400  1
  Zn  Zn171  1  0.21117900  0.21117900  0.48727300  1
  Zn  Zn172  1  0.44443900  0.53185100  0.45113800  1
  Zn  Zn173  1  0.30664400  0.60227800  0.42117600  1
  Zn  Zn174  1  0.57736100  0.88426200  0.41202800  1
  Zn  Zn175  1  0.07791900  0.99050600  0.42340800  1
  Zn  Zn176  1  0.94499600  0.63809600  0.46251700  1
  Zn  Zn177  1  0.91901200  0.46020800  0.47062000  1
  Zn  Zn178  1  0.21571400  0.92008000  0.45336900  1
  Zn  Zn179  1  0.62357600  0.51999700  0.43014400  1
  Zn  Zn180  1  0.71117900  0.21117900  0.48727300  1
  Zn  Zn181  1  0.26463700  0.97103500  0.40294100  1
  Zn  Zn182  1  0.13171400  0.82733000  0.40792500  1
  Zn  Zn183  1  0.23920400  0.08994000  0.44565900  1
  Zn  Zn184  1  0.45828500  0.20136900  0.58937200  1
  Zn  Zn185  1  0.66333700  0.44496700  0.57087200  1
  Zn  Zn186  1  0.18315400  0.33241800  0.52888600  1
  Zn  Zn187  1  0.79878200  0.90236100  0.54440100  1
  Zn  Zn188  1  0.84765500  0.24585400  0.52936200  1
  Zn  Zn189  1  0.47722900  0.36833700  0.58058300  1
  Zn  Zn190  1  0.16117900  0.16117900  0.53727300  1
  Zn  Zn191  1  0.76407300  0.02098800  0.58517300  1
  Zn  Zn192  1  0.98118800  0.46912700  0.59223100  1
  Zn  Zn193  1  0.42371500  0.02578000  0.59579500  1
  Zn  Zn194  1  0.15772000  0.45132300  0.57160500  1
  Zn  Zn195  1  0.29064300  0.59502700  0.56662000  1
  Zn  Zn196  1  0.29437500  0.09783200  0.56701800  1
  Zn  Zn197  1  0.50334500  0.96214900  0.50392500  1
  Zn  Zn198  1  0.65902100  0.87739100  0.50367300  1
  Zn  Zn199  1  0.24117000  0.75323100  0.58231400  1
  Zn  Zn200  1  0.42601000  0.73737100  0.56073800  1
  Zn  Zn201  1  0.79864300  0.19657800  0.57875100  1
  Zn  Zn202  1  0.74512800  0.85402000  0.59396300  1
  Zn  Zn203  1  0.02798300  0.22452500  0.50752700  1
  Zn  Zn204  1  0.89634800  0.58498700  0.51380700  1
  Zn  Zn205  1  0.47470300  0.07650400  0.54518400  1
  Zn  Zn206  1  0.11117900  0.11117900  0.58727300  1
  Zn  Zn207  1  0.34443900  0.43185100  0.55113800  1
  Zn  Zn208  1  0.20664400  0.50227800  0.52117600  1
  Zn  Zn209  1  0.47736100  0.78426200  0.51202800  1
  Zn  Zn210  1  0.97791900  0.89050600  0.52340800  1
  Zn  Zn211  1  0.84499600  0.53809600  0.56251700  1
  Zn  Zn212  1  0.81901200  0.36020800  0.57062000  1
  Zn  Zn213  1  0.11571400  0.82008000  0.55336900  1
  Zn  Zn214  1  0.52357600  0.41999700  0.53014400  1
  Zn  Zn215  1  0.61117900  0.11117900  0.58727300  1
  Zn  Zn216  1  0.16463700  0.87103500  0.50294100  1
  Zn  Zn217  1  0.03171400  0.72733000  0.50792500  1
  Zn  Zn218  1  0.13920400  0.98994000  0.54565900  1
  Zn  Zn219  1  0.35828500  0.10136900  0.68937200  1
  Zn  Zn220  1  0.56333700  0.34496700  0.67087200  1
  Zn  Zn221  1  0.08315400  0.23241800  0.62888600  1
  Zn  Zn222  1  0.69878200  0.80236100  0.64440100  1
  Zn  Zn223  1  0.74765500  0.14585400  0.62936200  1
  Zn  Zn224  1  0.37722900  0.26833700  0.68058300  1
  Zn  Zn225  1  0.06117900  0.06117900  0.63727300  1
  Zn  Zn226  1  0.66407300  0.92098800  0.68517300  1
  Zn  Zn227  1  0.88118800  0.36912700  0.69223100  1
  Zn  Zn228  1  0.32371500  0.92578000  0.69579500  1
  Zn  Zn229  1  0.05772000  0.35132300  0.67160500  1
  Zn  Zn230  1  0.19064300  0.49502700  0.66662000  1
  Zn  Zn231  1  0.19437500  0.99783200  0.66701800  1
  Zn  Zn232  1  0.40334500  0.86214900  0.60392500  1
  Zn  Zn233  1  0.55902100  0.77739100  0.60367300  1
  Zn  Zn234  1  0.14117000  0.65323100  0.68231400  1
  Zn  Zn235  1  0.32601000  0.63737100  0.66073800  1
  Zn  Zn236  1  0.69864300  0.09657800  0.67875100  1
  Zn  Zn237  1  0.64512800  0.75402000  0.69396300  1
  Zn  Zn238  1  0.92798300  0.12452500  0.60752700  1
  Zn  Zn239  1  0.79634800  0.48498700  0.61380700  1
  Zn  Zn240  1  0.37470300  0.97650400  0.64518400  1
  Zn  Zn241  1  0.01117900  0.01117900  0.68727300  1
  Zn  Zn242  1  0.24443900  0.33185100  0.65113800  1
  Zn  Zn243  1  0.10664400  0.40227800  0.62117600  1
  Zn  Zn244  1  0.37736100  0.68426200  0.61202800  1
  Zn  Zn245  1  0.87791900  0.79050600  0.62340800  1
  Zn  Zn246  1  0.74499600  0.43809600  0.66251700  1
  Zn  Zn247  1  0.71901200  0.26020800  0.67062000  1
  Zn  Zn248  1  0.01571400  0.72008000  0.65336900  1
  Zn  Zn249  1  0.42357600  0.31999700  0.63014400  1
  Zn  Zn250  1  0.51117900  0.01117900  0.68727300  1
  Zn  Zn251  1  0.06463700  0.77103500  0.60294100  1
  Zn  Zn252  1  0.93171400  0.62733000  0.60792500  1
  Zn  Zn253  1  0.03920400  0.88994000  0.64565900  1
  Zn  Zn254  1  0.25828500  0.00136900  0.78937200  1
  Zn  Zn255  1  0.46333700  0.24496700  0.77087200  1
  Zn  Zn256  1  0.98315400  0.13241800  0.72888600  1
  Zn  Zn257  1  0.59878200  0.70236100  0.74440100  1
  Zn  Zn258  1  0.64765500  0.04585400  0.72936200  1
  Zn  Zn259  1  0.27722900  0.16833700  0.78058300  1
  Zn  Zn260  1  0.96117900  0.96117900  0.73727300  1
  Zn  Zn261  1  0.56407300  0.82098800  0.78517300  1
  Zn  Zn262  1  0.78118800  0.26912700  0.79223100  1
  Zn  Zn263  1  0.22371500  0.82578000  0.79579500  1
  Zn  Zn264  1  0.95772000  0.25132300  0.77160500  1
  Zn  Zn265  1  0.09064300  0.39502700  0.76662000  1
  Zn  Zn266  1  0.09437500  0.89783200  0.76701800  1
  Zn  Zn267  1  0.30334500  0.76214900  0.70392500  1
  Zn  Zn268  1  0.45902100  0.67739100  0.70367300  1
  Zn  Zn269  1  0.04117000  0.55323100  0.78231400  1
  Zn  Zn270  1  0.22601000  0.53737100  0.76073800  1
  Zn  Zn271  1  0.59864300  0.99657800  0.77875100  1
  Zn  Zn272  1  0.54512800  0.65402000  0.79396300  1
  Zn  Zn273  1  0.82798300  0.02452500  0.70752700  1
  Zn  Zn274  1  0.69634800  0.38498700  0.71380700  1
  Zn  Zn275  1  0.27470300  0.87650400  0.74518400  1
  Zn  Zn276  1  0.91117900  0.91117900  0.78727300  1
  Zn  Zn277  1  0.14443900  0.23185100  0.75113800  1
  Zn  Zn278  1  0.00664400  0.30227800  0.72117600  1
  Zn  Zn279  1  0.27736100  0.58426200  0.71202800  1
  Zn  Zn280  1  0.77791900  0.69050600  0.72340800  1
  Zn  Zn281  1  0.64499600  0.33809600  0.76251700  1
  Zn  Zn282  1  0.61901200  0.16020800  0.77062000  1
  Zn  Zn283  1  0.91571400  0.62008000  0.75336900  1
  Zn  Zn284  1  0.32357600  0.21999700  0.73014400  1
  Zn  Zn285  1  0.41117900  0.91117900  0.78727300  1
  Zn  Zn286  1  0.96463700  0.67103500  0.70294100  1
  Zn  Zn287  1  0.83171400  0.52733000  0.70792500  1
  Zn  Zn288  1  0.93920400  0.78994000  0.74565900  1
