# generated using pymatgen
data_Mg19Tl7
_symmetry_space_group_name_H-M   'P 1'
_cell_length_a   6.32911714
_cell_length_b   8.77491562
_cell_length_c   45.19527000
_cell_angle_alpha   85.33535441
_cell_angle_beta   85.98488022
_cell_angle_gamma   68.86068493
_symmetry_Int_Tables_number   1
_chemical_formula_structural   Mg19Tl7
_chemical_formula_sum   'Mg38 Tl14'
_cell_volume   2331.13079959
_cell_formula_units_Z   2
loop_
 _symmetry_equiv_pos_site_id
 _symmetry_equiv_pos_as_xyz
  1  'x, y, z'
loop_
 _atom_site_type_symbol
 _atom_site_label
 _atom_site_symmetry_multiplicity
 _atom_site_fract_x
 _atom_site_fract_y
 _atom_site_fract_z
 _atom_site_occupancy
  Mg  Mg0  1  0.83498000  0.63109300  0.69894600  1
  Mg  Mg1  1  0.90741400  0.98410200  0.70107100  1
  Mg  Mg2  1  0.70567700  0.35395300  0.73469400  1
  Mg  Mg3  1  0.48060700  0.36411100  0.67467500  1
  Mg  Mg4  1  0.07637300  0.07681300  0.77044100  1
  Mg  Mg5  1  0.00393900  0.72380400  0.76831700  1
  Mg  Mg6  1  0.50393900  0.72380400  0.76831700  1
  Mg  Mg7  1  0.40741400  0.98410200  0.70107100  1
  Mg  Mg8  1  0.28788900  0.77236700  0.65185500  1
  Mg  Mg9  1  0.20567700  0.35395300  0.73469400  1
  Mg  Mg10  1  0.69212300  0.05966500  0.55608900  1
  Mg  Mg11  1  0.76455700  0.41267300  0.55821400  1
  Mg  Mg12  1  0.56281900  0.78252400  0.59183700  1
  Mg  Mg13  1  0.33775000  0.79268200  0.53181800  1
  Mg  Mg14  1  0.93351600  0.50538400  0.62758400  1
  Mg  Mg15  1  0.86108200  0.15237600  0.62546000  1
  Mg  Mg16  1  0.36108200  0.15237600  0.62546000  1
  Mg  Mg17  1  0.26455700  0.41267300  0.55821400  1
  Mg  Mg18  1  0.14503200  0.20093800  0.50899800  1
  Mg  Mg19  1  0.06281900  0.78252400  0.59183700  1
  Mg  Mg20  1  0.54926600  0.48823600  0.41323200  1
  Mg  Mg21  1  0.62169900  0.84124400  0.41535700  1
  Mg  Mg22  1  0.41996200  0.21109600  0.44898000  1
  Mg  Mg23  1  0.19489300  0.22125400  0.38896100  1
  Mg  Mg24  1  0.79065900  0.93395600  0.48472700  1
  Mg  Mg25  1  0.71822500  0.58094700  0.48260200  1
  Mg  Mg26  1  0.21822500  0.58094700  0.48260200  1
  Mg  Mg27  1  0.12169900  0.84124400  0.41535700  1
  Mg  Mg28  1  0.00217500  0.62950900  0.36614100  1
  Mg  Mg29  1  0.91996200  0.21109600  0.44898000  1
  Mg  Mg30  1  0.40640900  0.91680700  0.27037500  1
  Mg  Mg31  1  0.47884200  0.26981600  0.27250000  1
  Mg  Mg32  1  0.27710500  0.63966700  0.30612200  1
  Mg  Mg33  1  0.64780200  0.36252700  0.34187000  1
  Mg  Mg34  1  0.57536800  0.00951900  0.33974500  1
  Mg  Mg35  1  0.07536800  0.00951900  0.33974500  1
  Mg  Mg36  1  0.97884200  0.26981600  0.27250000  1
  Mg  Mg37  1  0.77710500  0.63966700  0.30612200  1
  Tl  Tl38  1  0.02248300  0.27536400  0.67967000  1
  Tl  Tl39  1  0.31363100  0.65825900  0.71447900  1
  Tl  Tl40  1  0.59772200  0.04964600  0.75490900  1
  Tl  Tl41  1  0.74601300  0.86111300  0.64686100  1
  Tl  Tl42  1  0.87962600  0.70393600  0.53681300  1
  Tl  Tl43  1  0.17077400  0.08683100  0.57162100  1
  Tl  Tl44  1  0.45486500  0.47821800  0.61205200  1
  Tl  Tl45  1  0.60315600  0.28968400  0.50400400  1
  Tl  Tl46  1  0.73676900  0.13250700  0.39395600  1
  Tl  Tl47  1  0.02791700  0.51540200  0.42876400  1
  Tl  Tl48  1  0.31200800  0.90678900  0.46919500  1
  Tl  Tl49  1  0.46029900  0.71825600  0.36114600  1
  Tl  Tl50  1  0.88506000  0.94397400  0.28590700  1
  Tl  Tl51  1  0.16915100  0.33536100  0.32633800  1
