# generated using pymatgen
data_Ca36Mg71
_symmetry_space_group_name_H-M   'P 1'
_cell_length_a   10.64675200
_cell_length_b   12.06769063
_cell_length_c   44.26378200
_cell_angle_alpha   92.61821980
_cell_angle_beta   90.00000000
_cell_angle_gamma   63.82423290
_symmetry_Int_Tables_number   1
_chemical_formula_structural   Ca36Mg71
_chemical_formula_sum   'Ca36 Mg71'
_cell_volume   5097.23131442
_cell_formula_units_Z   1
loop_
 _symmetry_equiv_pos_site_id
 _symmetry_equiv_pos_as_xyz
  1  'x, y, z'
loop_
 _atom_site_type_symbol
 _atom_site_label
 _atom_site_symmetry_multiplicity
 _atom_site_fract_x
 _atom_site_fract_y
 _atom_site_fract_z
 _atom_site_occupancy
  Ca  Ca0  1  0.90852100  0.87952100  0.25990300  1
  Ca  Ca1  1  0.47518700  0.41285500  0.22656900  1
  Ca  Ca2  1  0.65271500  0.05779800  0.20120800  1
  Ca  Ca3  1  0.08604900  0.52446500  0.23454200  1
  Ca  Ca4  1  0.44185400  0.81285500  0.32656900  1
  Ca  Ca5  1  0.00852100  0.34618800  0.29323600  1
  Ca  Ca6  1  0.18604900  0.99113200  0.26787500  1
  Ca  Ca7  1  0.61938200  0.45779800  0.30120800  1
  Ca  Ca8  1  0.97518700  0.74618800  0.39323600  1
  Ca  Ca9  1  0.54185400  0.27952100  0.35990300  1
  Ca  Ca10  1  0.71938200  0.92446500  0.33454200  1
  Ca  Ca11  1  0.15271500  0.39113200  0.36787500  1
  Ca  Ca12  1  0.50852100  0.67952100  0.45990300  1
  Ca  Ca13  1  0.07518700  0.21285500  0.42656900  1
  Ca  Ca14  1  0.25271500  0.85779800  0.40120800  1
  Ca  Ca15  1  0.68604900  0.32446500  0.43454200  1
  Ca  Ca16  1  0.04185400  0.61285500  0.52656900  1
  Ca  Ca17  1  0.60852100  0.14618800  0.49323600  1
  Ca  Ca18  1  0.78604900  0.79113200  0.46787500  1
  Ca  Ca19  1  0.21938200  0.25779800  0.50120800  1
  Ca  Ca20  1  0.57518700  0.54618800  0.59323600  1
  Ca  Ca21  1  0.14185400  0.07952100  0.55990300  1
  Ca  Ca22  1  0.31938200  0.72446500  0.53454200  1
  Ca  Ca23  1  0.75271500  0.19113200  0.56787500  1
  Ca  Ca24  1  0.10852100  0.47952100  0.65990300  1
  Ca  Ca25  1  0.67518700  0.01285500  0.62656900  1
  Ca  Ca26  1  0.85271500  0.65779800  0.60120800  1
  Ca  Ca27  1  0.28604900  0.12446500  0.63454200  1
  Ca  Ca28  1  0.64185400  0.41285500  0.72656900  1
  Ca  Ca29  1  0.20852100  0.94618800  0.69323600  1
  Ca  Ca30  1  0.38604900  0.59113200  0.66787500  1
  Ca  Ca31  1  0.81938200  0.05779800  0.70120800  1
  Ca  Ca32  1  0.17518700  0.34618800  0.79323600  1
  Ca  Ca33  1  0.74185400  0.87952100  0.75990300  1
  Ca  Ca34  1  0.91938200  0.52446500  0.73454200  1
  Ca  Ca35  1  0.35271500  0.99113200  0.76787500  1
  Mg  Mg36  1  0.82982500  0.20159600  0.24761900  1
  Mg  Mg37  1  0.23180800  0.73493000  0.21428500  1
  Mg  Mg38  1  0.49530200  0.70199300  0.24722200  1
  Mg  Mg39  1  0.06593400  0.23532600  0.21388900  1
  Mg  Mg40  1  0.78061800  0.46866000  0.23055600  1
  Mg  Mg41  1  0.54728500  0.93532600  0.26388900  1
  Mg  Mg42  1  0.73141100  0.73572300  0.21349200  1
  Mg  Mg43  1  0.32942800  0.20239000  0.24682600  1
  Mg  Mg44  1  0.36315800  0.13493000  0.31428500  1
  Mg  Mg45  1  0.76514100  0.66826300  0.28095200  1
  Mg  Mg46  1  0.02863500  0.63532600  0.31388900  1
  Mg  Mg47  1  0.59926700  0.16866000  0.28055600  1
  Mg  Mg48  1  0.31395100  0.40199300  0.29722200  1
  Mg  Mg49  1  0.08061800  0.86866000  0.33055600  1
  Mg  Mg50  1  0.26474400  0.66905600  0.28015900  1
  Mg  Mg51  1  0.86276200  0.13572300  0.31349200  1
  Mg  Mg52  1  0.89649100  0.06826300  0.38095200  1
  Mg  Mg53  1  0.29847400  0.60159600  0.34761900  1
  Mg  Mg54  1  0.56196800  0.56866000  0.38055600  1
  Mg  Mg55  1  0.13260100  0.10199300  0.34722200  1
  Mg  Mg56  1  0.84728500  0.33532600  0.36388900  1
  Mg  Mg57  1  0.61395100  0.80199300  0.39722200  1
  Mg  Mg58  1  0.79807800  0.60239000  0.34682600  1
  Mg  Mg59  1  0.39609500  0.06905600  0.38015900  1
  Mg  Mg60  1  0.42982500  0.00159600  0.44761900  1
  Mg  Mg61  1  0.83180800  0.53493000  0.41428500  1
  Mg  Mg62  1  0.09530200  0.50199300  0.44722200  1
  Mg  Mg63  1  0.66593400  0.03532600  0.41388900  1
  Mg  Mg64  1  0.38061800  0.26866000  0.43055600  1
  Mg  Mg65  1  0.14728500  0.73532600  0.46388900  1
  Mg  Mg66  1  0.33141100  0.53572300  0.41349200  1
  Mg  Mg67  1  0.92942800  0.00239000  0.44682600  1
  Mg  Mg68  1  0.96315800  0.93493000  0.51428500  1
  Mg  Mg69  1  0.36514100  0.46826300  0.48095200  1
  Mg  Mg70  1  0.62863500  0.43532600  0.51388900  1
  Mg  Mg71  1  0.19926700  0.96866000  0.48055600  1
  Mg  Mg72  1  0.91395100  0.20199300  0.49722200  1
  Mg  Mg73  1  0.68061800  0.66866000  0.53055600  1
  Mg  Mg74  1  0.86474400  0.46905600  0.48015900  1
  Mg  Mg75  1  0.46276200  0.93572300  0.51349200  1
  Mg  Mg76  1  0.49649100  0.86826300  0.58095200  1
  Mg  Mg77  1  0.89847400  0.40159600  0.54761900  1
  Mg  Mg78  1  0.16196800  0.36866000  0.58055600  1
  Mg  Mg79  1  0.73260100  0.90199300  0.54722200  1
  Mg  Mg80  1  0.44728500  0.13532600  0.56388900  1
  Mg  Mg81  1  0.21395100  0.60199300  0.59722200  1
  Mg  Mg82  1  0.39807800  0.40239000  0.54682600  1
  Mg  Mg83  1  0.99609500  0.86905600  0.58015900  1
  Mg  Mg84  1  0.02982500  0.80159600  0.64761900  1
  Mg  Mg85  1  0.43180800  0.33493000  0.61428500  1
  Mg  Mg86  1  0.69530200  0.30199300  0.64722200  1
  Mg  Mg87  1  0.26593400  0.83532600  0.61388900  1
  Mg  Mg88  1  0.98061800  0.06866000  0.63055600  1
  Mg  Mg89  1  0.74728500  0.53532600  0.66388900  1
  Mg  Mg90  1  0.93141100  0.33572300  0.61349200  1
  Mg  Mg91  1  0.52942800  0.80239000  0.64682600  1
  Mg  Mg92  1  0.56315800  0.73493000  0.71428500  1
  Mg  Mg93  1  0.96514100  0.26826300  0.68095200  1
  Mg  Mg94  1  0.22863500  0.23532600  0.71388900  1
  Mg  Mg95  1  0.79926700  0.76866000  0.68055600  1
  Mg  Mg96  1  0.51395100  0.00199300  0.69722200  1
  Mg  Mg97  1  0.28061800  0.46866000  0.73055600  1
  Mg  Mg98  1  0.46474400  0.26905600  0.68015900  1
  Mg  Mg99  1  0.06276200  0.73572300  0.71349200  1
  Mg  Mg100  1  0.09649100  0.66826300  0.78095200  1
  Mg  Mg101  1  0.49847400  0.20159600  0.74761900  1
  Mg  Mg102  1  0.76196800  0.16866000  0.78055600  1
  Mg  Mg103  1  0.33260100  0.70199300  0.74722200  1
  Mg  Mg104  1  0.04728500  0.93532600  0.76388900  1
  Mg  Mg105  1  0.99807800  0.20239000  0.74682600  1
  Mg  Mg106  1  0.59609500  0.66905600  0.78015900  1
