# generated using pymatgen
data_La13Mg3
_symmetry_space_group_name_H-M   'P 1'
_cell_length_a   3.76223921
_cell_length_b   12.59775334
_cell_length_c   45.02321400
_cell_angle_alpha   82.52614143
_cell_angle_beta   87.60542978
_cell_angle_gamma   81.41237189
_symmetry_Int_Tables_number   1
_chemical_formula_structural   La13Mg3
_chemical_formula_sum   'La26 Mg6'
_cell_volume   2091.51562882
_cell_formula_units_Z   2
loop_
 _symmetry_equiv_pos_site_id
 _symmetry_equiv_pos_as_xyz
  1  'x, y, z'
loop_
 _atom_site_type_symbol
 _atom_site_label
 _atom_site_symmetry_multiplicity
 _atom_site_fract_x
 _atom_site_fract_y
 _atom_site_fract_z
 _atom_site_occupancy
  La  La0  1  0.59003400  0.05243600  0.76749700  1
  La  La1  1  0.19673400  0.88959400  0.71693900  1
  La  La2  1  0.80326600  0.64374000  0.74972800  1
  La  La3  1  0.40996600  0.39756400  0.78250300  1
  La  La4  1  0.59003400  0.13576900  0.68416400  1
  La  La5  1  0.19673400  0.97292700  0.63360600  1
  La  La6  1  0.80326600  0.72707300  0.66639400  1
  La  La7  1  0.40996600  0.48089800  0.69916900  1
  La  La8  1  0.59003400  0.21910200  0.60083100  1
  La  La9  1  0.19673400  0.05626000  0.55027200  1
  La  La10  1  0.80326600  0.81040600  0.58306100  1
  La  La11  1  0.40996600  0.56423100  0.61583600  1
  La  La12  1  0.59003400  0.30243600  0.51749700  1
  La  La13  1  0.19673400  0.13959400  0.46693900  1
  La  La14  1  0.80326600  0.89374000  0.49972800  1
  La  La15  1  0.40996600  0.64756400  0.53250300  1
  La  La16  1  0.59003400  0.38576900  0.43416400  1
  La  La17  1  0.19673400  0.22292700  0.38360600  1
  La  La18  1  0.80326600  0.97707300  0.41639400  1
  La  La19  1  0.40996600  0.73089800  0.44916900  1
  La  La20  1  0.59003400  0.46910200  0.35083100  1
  La  La21  1  0.19673400  0.30626000  0.30027200  1
  La  La22  1  0.80326600  0.06040600  0.33306100  1
  La  La23  1  0.40996600  0.81423100  0.36583600  1
  La  La24  1  0.59003400  0.55243600  0.26749700  1
  La  La25  1  0.40996600  0.89756400  0.28250300  1
  Mg  Mg26  1  1.00000000  0.26666700  0.73333300  1
  Mg  Mg27  1  0.00000000  0.35000000  0.65000000  1
  Mg  Mg28  1  0.00000000  0.43333300  0.56666700  1
  Mg  Mg29  1  1.00000000  0.51666700  0.48333300  1
  Mg  Mg30  1  0.00000000  0.60000000  0.40000000  1
  Mg  Mg31  1  1.00000000  0.68333300  0.31666700  1
