# generated using pymatgen
data_La8Mg79
_symmetry_space_group_name_H-M   'P 1'
_cell_length_a   10.38875200
_cell_length_b   10.38875187
_cell_length_c   50.48118100
_cell_angle_alpha   90.00000000
_cell_angle_beta   90.00000000
_cell_angle_gamma   120.00000040
_symmetry_Int_Tables_number   1
_chemical_formula_structural   La8Mg79
_chemical_formula_sum   'La8 Mg79'
_cell_volume   4718.31453967
_cell_formula_units_Z   1
loop_
 _symmetry_equiv_pos_site_id
 _symmetry_equiv_pos_as_xyz
  1  'x, y, z'
loop_
 _atom_site_type_symbol
 _atom_site_label
 _atom_site_symmetry_multiplicity
 _atom_site_fract_x
 _atom_site_fract_y
 _atom_site_fract_z
 _atom_site_occupancy
  La  La0  1  0.33333300  0.66666700  0.52105300  1
  La  La1  1  0.66666700  0.33333300  0.42105300  1
  La  La2  1  0.00000000  0.00000000  0.42105300  1
  La  La3  1  0.00000000  0.00000000  0.52105300  1
  La  La4  1  0.33333300  0.66666700  0.72105300  1
  La  La5  1  0.66666700  0.33333300  0.62105300  1
  La  La6  1  0.00000000  0.00000000  0.62105300  1
  La  La7  1  0.00000000  0.00000000  0.72105300  1
  Mg  Mg8  1  0.83777700  0.67555400  0.37523200  1
  Mg  Mg9  1  0.32444600  0.16222300  0.37523200  1
  Mg  Mg10  1  0.83777700  0.16222300  0.37523200  1
  Mg  Mg11  1  0.33333300  0.66666700  0.39071900  1
  Mg  Mg12  1  0.66666700  0.33333300  0.35138600  1
  Mg  Mg13  1  0.50000000  0.00000000  0.37105300  1
  Mg  Mg14  1  0.50000000  0.50000000  0.37105300  1
  Mg  Mg15  1  1.00000000  0.50000000  0.37105300  1
  Mg  Mg16  1  0.16222300  0.32444600  0.36687400  1
  Mg  Mg17  1  0.16222300  0.83777700  0.36687400  1
  Mg  Mg18  1  0.67555400  0.83777700  0.36687400  1
  Mg  Mg19  1  0.83777700  0.67555400  0.57523200  1
  Mg  Mg20  1  0.32444600  0.16222300  0.57523200  1
  Mg  Mg21  1  0.83777700  0.16222300  0.57523200  1
  Mg  Mg22  1  0.16222300  0.83777700  0.47523200  1
  Mg  Mg23  1  0.66666700  0.33333300  0.49071900  1
  Mg  Mg24  1  0.33333300  0.66666700  0.59071900  1
  Mg  Mg25  1  0.33333300  0.66666700  0.45138600  1
  Mg  Mg26  1  0.66666700  0.33333300  0.55138600  1
  Mg  Mg27  1  1.00000000  0.50000000  0.47105300  1
  Mg  Mg28  1  0.50000000  0.00000000  0.57105300  1
  Mg  Mg29  1  0.50000000  0.50000000  0.57105300  1
  Mg  Mg30  1  0.50000000  0.50000000  0.47105300  1
  Mg  Mg31  1  0.50000000  0.00000000  0.47105300  1
  Mg  Mg32  1  1.00000000  0.50000000  0.57105300  1
  Mg  Mg33  1  0.96550700  0.63703800  0.52105300  1
  Mg  Mg34  1  0.32846900  0.96550700  0.42105300  1
  Mg  Mg35  1  0.63703800  0.67153100  0.42105300  1
  Mg  Mg36  1  0.36296200  0.32846900  0.52105300  1
  Mg  Mg37  1  0.67153100  0.03449300  0.52105300  1
  Mg  Mg38  1  0.03449300  0.67153100  0.42105300  1
  Mg  Mg39  1  0.63703800  0.96550700  0.42105300  1
  Mg  Mg40  1  0.03449300  0.36296200  0.42105300  1
  Mg  Mg41  1  0.32846900  0.36296200  0.42105300  1
  Mg  Mg42  1  0.67153100  0.63703800  0.52105300  1
  Mg  Mg43  1  0.96550700  0.32846900  0.52105300  1
  Mg  Mg44  1  0.36296200  0.03449300  0.52105300  1
  Mg  Mg45  1  0.32444600  0.16222300  0.46687400  1
  Mg  Mg46  1  0.16222300  0.32444600  0.56687400  1
  Mg  Mg47  1  0.16222300  0.83777700  0.56687400  1
  Mg  Mg48  1  0.83777700  0.16222300  0.46687400  1
  Mg  Mg49  1  0.83777700  0.67555400  0.46687400  1
  Mg  Mg50  1  0.67555400  0.83777700  0.47523200  1
  Mg  Mg51  1  0.16222300  0.32444600  0.47523200  1
  Mg  Mg52  1  0.67555400  0.83777700  0.56687400  1
  Mg  Mg53  1  0.83777700  0.67555400  0.77523200  1
  Mg  Mg54  1  0.32444600  0.16222300  0.77523200  1
  Mg  Mg55  1  0.83777700  0.16222300  0.77523200  1
  Mg  Mg56  1  0.16222300  0.83777700  0.67523200  1
  Mg  Mg57  1  0.66666700  0.33333300  0.69071900  1
  Mg  Mg58  1  0.33333300  0.66666700  0.79071900  1
  Mg  Mg59  1  0.33333300  0.66666700  0.65138600  1
  Mg  Mg60  1  0.66666700  0.33333300  0.75138600  1
  Mg  Mg61  1  1.00000000  0.50000000  0.67105300  1
  Mg  Mg62  1  0.50000000  0.00000000  0.77105300  1
  Mg  Mg63  1  0.50000000  0.50000000  0.77105300  1
  Mg  Mg64  1  0.50000000  0.50000000  0.67105300  1
  Mg  Mg65  1  0.50000000  0.00000000  0.67105300  1
  Mg  Mg66  1  1.00000000  0.50000000  0.77105300  1
  Mg  Mg67  1  0.96550700  0.63703800  0.72105300  1
  Mg  Mg68  1  0.32846900  0.96550700  0.62105300  1
  Mg  Mg69  1  0.63703800  0.67153100  0.62105300  1
  Mg  Mg70  1  0.36296200  0.32846900  0.72105300  1
  Mg  Mg71  1  0.67153100  0.03449300  0.72105300  1
  Mg  Mg72  1  0.03449300  0.67153100  0.62105300  1
  Mg  Mg73  1  0.63703800  0.96550700  0.62105300  1
  Mg  Mg74  1  0.03449300  0.36296200  0.62105300  1
  Mg  Mg75  1  0.32846900  0.36296200  0.62105300  1
  Mg  Mg76  1  0.67153100  0.63703800  0.72105300  1
  Mg  Mg77  1  0.96550700  0.32846900  0.72105300  1
  Mg  Mg78  1  0.36296200  0.03449300  0.72105300  1
  Mg  Mg79  1  0.32444600  0.16222300  0.66687400  1
  Mg  Mg80  1  0.16222300  0.32444600  0.76687400  1
  Mg  Mg81  1  0.16222300  0.83777700  0.76687400  1
  Mg  Mg82  1  0.83777700  0.16222300  0.66687400  1
  Mg  Mg83  1  0.83777700  0.67555400  0.66687400  1
  Mg  Mg84  1  0.67555400  0.83777700  0.67523200  1
  Mg  Mg85  1  0.16222300  0.32444600  0.67523200  1
  Mg  Mg86  1  0.67555400  0.83777700  0.76687400  1
