# generated using pymatgen
data_Mg22Zn111
_symmetry_space_group_name_H-M   'P 1'
_cell_length_a   10.62299173
_cell_length_b   17.53293388
_cell_length_c   43.15075500
_cell_angle_alpha   81.29988746
_cell_angle_beta   89.35999185
_cell_angle_gamma   81.47469625
_symmetry_Int_Tables_number   1
_chemical_formula_structural   Mg22Zn111
_chemical_formula_sum   'Mg44 Zn222'
_cell_volume   7856.14450224
_cell_formula_units_Z   2
loop_
 _symmetry_equiv_pos_site_id
 _symmetry_equiv_pos_as_xyz
  1  'x, y, z'
loop_
 _atom_site_type_symbol
 _atom_site_label
 _atom_site_symmetry_multiplicity
 _atom_site_fract_x
 _atom_site_fract_y
 _atom_site_fract_z
 _atom_site_occupancy
  Mg  Mg0  1  0.23406500  0.22428900  0.26053700  1
  Mg  Mg1  1  0.99262100  0.13905400  0.28529700  1
  Mg  Mg2  1  0.18536500  0.39758100  0.27833500  1
  Mg  Mg3  1  0.04132000  0.96576200  0.26749800  1
  Mg  Mg4  1  0.63406500  0.67428900  0.31053700  1
  Mg  Mg5  1  0.39262100  0.58905400  0.33529700  1
  Mg  Mg6  1  0.58536500  0.84758100  0.32833500  1
  Mg  Mg7  1  0.44132000  0.41576200  0.31749800  1
  Mg  Mg8  1  0.03406500  0.12428900  0.36053700  1
  Mg  Mg9  1  0.79262100  0.03905400  0.38529700  1
  Mg  Mg10  1  0.98536500  0.29758100  0.37833500  1
  Mg  Mg11  1  0.84132000  0.86576200  0.36749800  1
  Mg  Mg12  1  0.43406500  0.57428900  0.41053700  1
  Mg  Mg13  1  0.19262100  0.48905400  0.43529700  1
  Mg  Mg14  1  0.38536500  0.74758100  0.42833500  1
  Mg  Mg15  1  0.24132000  0.31576200  0.41749800  1
  Mg  Mg16  1  0.83406500  0.02428900  0.46053700  1
  Mg  Mg17  1  0.59262100  0.93905400  0.48529700  1
  Mg  Mg18  1  0.78536500  0.19758100  0.47833500  1
  Mg  Mg19  1  0.64132000  0.76576200  0.46749800  1
  Mg  Mg20  1  0.23406500  0.47428900  0.51053700  1
  Mg  Mg21  1  0.99262100  0.38905400  0.53529700  1
  Mg  Mg22  1  0.18536500  0.64758100  0.52833500  1
  Mg  Mg23  1  0.04132000  0.21576200  0.51749800  1
  Mg  Mg24  1  0.63406500  0.92428900  0.56053700  1
  Mg  Mg25  1  0.39262100  0.83905400  0.58529700  1
  Mg  Mg26  1  0.58536500  0.09758100  0.57833500  1
  Mg  Mg27  1  0.44132000  0.66576200  0.56749800  1
  Mg  Mg28  1  0.03406500  0.37428900  0.61053700  1
  Mg  Mg29  1  0.79262100  0.28905400  0.63529700  1
  Mg  Mg30  1  0.98536500  0.54758100  0.62833500  1
  Mg  Mg31  1  0.84132000  0.11576200  0.61749800  1
  Mg  Mg32  1  0.43406500  0.82428900  0.66053700  1
  Mg  Mg33  1  0.19262100  0.73905400  0.68529700  1
  Mg  Mg34  1  0.38536500  0.99758100  0.67833500  1
  Mg  Mg35  1  0.24132000  0.56576200  0.66749800  1
  Mg  Mg36  1  0.83406500  0.27428900  0.71053700  1
  Mg  Mg37  1  0.59262100  0.18905400  0.73529700  1
  Mg  Mg38  1  0.78536500  0.44758100  0.72833500  1
  Mg  Mg39  1  0.64132000  0.01576200  0.71749800  1
  Mg  Mg40  1  0.23406500  0.72428900  0.76053700  1
  Mg  Mg41  1  0.99262100  0.63905400  0.78529700  1
  Mg  Mg42  1  0.18536500  0.89758100  0.77833500  1
  Mg  Mg43  1  0.04132000  0.46576200  0.76749800  1
  Zn  Zn44  1  0.31334300  0.90667100  0.29791700  1
  Zn  Zn45  1  0.51338400  0.55548500  0.27632400  1
  Zn  Zn46  1  0.71330200  0.80785800  0.26950900  1
  Zn  Zn47  1  0.97232500  0.80620900  0.27018400  1
  Zn  Zn48  1  0.87242800  0.67852000  0.27376400  1
  Zn  Zn49  1  0.75708400  0.55295800  0.27547100  1
  Zn  Zn50  1  0.46960200  0.81038500  0.27036200  1
  Zn  Zn51  1  0.25436000  0.55713400  0.27565000  1
  Zn  Zn52  1  0.81334300  0.90667100  0.29791700  1
  Zn  Zn53  1  0.20952300  0.81499100  0.26998800  1
  Zn  Zn54  1  0.01716200  0.54835200  0.27584500  1
  Zn  Zn55  1  0.35425800  0.68482300  0.27206900  1
  Zn  Zn56  1  0.91334300  0.45667100  0.24791700  1
  Zn  Zn57  1  0.52960000  0.97123600  0.26660500  1
  Zn  Zn58  1  0.49672200  0.12989300  0.28457400  1
  Zn  Zn59  1  0.96845900  0.30981400  0.27093300  1
  Zn  Zn60  1  0.69708600  0.39210700  0.27922800  1
  Zn  Zn61  1  0.25822600  0.05352900  0.27490000  1
  Zn  Zn62  1  0.75542100  0.05766400  0.27512000  1
  Zn  Zn63  1  0.72996400  0.23345000  0.26126000  1
  Zn  Zn64  1  0.47126500  0.30567800  0.27071400  1
  Zn  Zn65  1  0.41334300  0.45667100  0.24791700  1
  Zn  Zn66  1  0.11334300  0.80667100  0.39791700  1
  Zn  Zn67  1  0.92960000  0.42123600  0.31660500  1
  Zn  Zn68  1  0.89672200  0.57989300  0.33457400  1
  Zn  Zn69  1  0.31338400  0.45548500  0.37632400  1
  Zn  Zn70  1  0.51330200  0.70785800  0.36950900  1
  Zn  Zn71  1  0.77232500  0.70620900  0.37018400  1
  Zn  Zn72  1  0.36845900  0.75981400  0.32093300  1
  Zn  Zn73  1  0.09708600  0.84210700  0.32922800  1
  Zn  Zn74  1  0.67242800  0.57852000  0.37376400  1
  Zn  Zn75  1  0.55708400  0.45295800  0.37547100  1
  Zn  Zn76  1  0.26960200  0.71038500  0.37036200  1
  Zn  Zn77  1  0.65822600  0.50352900  0.32490000  1
  Zn  Zn78  1  0.15542100  0.50766400  0.32512000  1
  Zn  Zn79  1  0.12996400  0.68345000  0.31126000  1
  Zn  Zn80  1  0.87126500  0.75567800  0.32071400  1
  Zn  Zn81  1  0.05436000  0.45713400  0.37565000  1
  Zn  Zn82  1  0.61334300  0.80667100  0.39791700  1
  Zn  Zn83  1  0.00952300  0.71499100  0.36998800  1
  Zn  Zn84  1  0.81716200  0.44835200  0.37584500  1
  Zn  Zn85  1  0.15425800  0.58482300  0.37206900  1
  Zn  Zn86  1  0.71334300  0.35667100  0.34791700  1
  Zn  Zn87  1  0.32960000  0.87123600  0.36660500  1
  Zn  Zn88  1  0.29672200  0.02989300  0.38457400  1
  Zn  Zn89  1  0.91338400  0.00548500  0.32632400  1
  Zn  Zn90  1  0.11330200  0.25785800  0.31950900  1
  Zn  Zn91  1  0.37232500  0.25620900  0.32018400  1
  Zn  Zn92  1  0.76845900  0.20981400  0.37093300  1
  Zn  Zn93  1  0.49708600  0.29210700  0.37922800  1
  Zn  Zn94  1  0.27242800  0.12852000  0.32376400  1
  Zn  Zn95  1  0.15708400  0.00295800  0.32547100  1
  Zn  Zn96  1  0.86960200  0.26038500  0.32036200  1
  Zn  Zn97  1  0.05822600  0.95352900  0.37490000  1
  Zn  Zn98  1  0.55542100  0.95766400  0.37512000  1
  Zn  Zn99  1  0.52996400  0.13345000  0.36126000  1
  Zn  Zn100  1  0.27126500  0.20567800  0.37071400  1
  Zn  Zn101  1  0.65436000  0.00713400  0.32565000  1
  Zn  Zn102  1  0.21334300  0.35667100  0.34791700  1
  Zn  Zn103  1  0.60952300  0.26499100  0.31998800  1
  Zn  Zn104  1  0.41716200  0.99835200  0.32584500  1
  Zn  Zn105  1  0.75425800  0.13482300  0.32206900  1
  Zn  Zn106  1  0.91334300  0.70667100  0.49791700  1
  Zn  Zn107  1  0.72960000  0.32123600  0.41660500  1
  Zn  Zn108  1  0.69672200  0.47989300  0.43457400  1
  Zn  Zn109  1  0.11338400  0.35548500  0.47632400  1
  Zn  Zn110  1  0.31330200  0.60785800  0.46950900  1
  Zn  Zn111  1  0.57232500  0.60620900  0.47018400  1
  Zn  Zn112  1  0.16845900  0.65981400  0.42093300  1
  Zn  Zn113  1  0.89708600  0.74210700  0.42922800  1
  Zn  Zn114  1  0.47242800  0.47852000  0.47376400  1
  Zn  Zn115  1  0.35708400  0.35295800  0.47547100  1
  Zn  Zn116  1  0.06960200  0.61038500  0.47036200  1
  Zn  Zn117  1  0.45822600  0.40352900  0.42490000  1
  Zn  Zn118  1  0.95542100  0.40766400  0.42512000  1
  Zn  Zn119  1  0.92996400  0.58345000  0.41126000  1
  Zn  Zn120  1  0.67126500  0.65567800  0.42071400  1
  Zn  Zn121  1  0.85436000  0.35713400  0.47565000  1
  Zn  Zn122  1  0.41334300  0.70667100  0.49791700  1
  Zn  Zn123  1  0.80952300  0.61499100  0.46998800  1
  Zn  Zn124  1  0.61716200  0.34835200  0.47584500  1
  Zn  Zn125  1  0.95425800  0.48482300  0.47206900  1
  Zn  Zn126  1  0.51334300  0.25667100  0.44791700  1
  Zn  Zn127  1  0.12960000  0.77123600  0.46660500  1
  Zn  Zn128  1  0.09672200  0.92989300  0.48457400  1
  Zn  Zn129  1  0.71338400  0.90548500  0.42632400  1
  Zn  Zn130  1  0.91330200  0.15785800  0.41950900  1
  Zn  Zn131  1  0.17232500  0.15620900  0.42018400  1
  Zn  Zn132  1  0.56845900  0.10981400  0.47093300  1
  Zn  Zn133  1  0.29708600  0.19210700  0.47922800  1
  Zn  Zn134  1  0.07242800  0.02852000  0.42376400  1
  Zn  Zn135  1  0.95708400  0.90295800  0.42547100  1
  Zn  Zn136  1  0.66960200  0.16038500  0.42036200  1
  Zn  Zn137  1  0.85822600  0.85352900  0.47490000  1
  Zn  Zn138  1  0.35542100  0.85766400  0.47512000  1
  Zn  Zn139  1  0.32996400  0.03345000  0.46126000  1
  Zn  Zn140  1  0.07126500  0.10567800  0.47071400  1
  Zn  Zn141  1  0.45436000  0.90713400  0.42565000  1
  Zn  Zn142  1  0.01334300  0.25667100  0.44791700  1
  Zn  Zn143  1  0.40952300  0.16499100  0.41998800  1
  Zn  Zn144  1  0.21716200  0.89835200  0.42584500  1
  Zn  Zn145  1  0.55425800  0.03482300  0.42206900  1
  Zn  Zn146  1  0.71334300  0.60667100  0.59791700  1
  Zn  Zn147  1  0.52960000  0.22123600  0.51660500  1
  Zn  Zn148  1  0.49672200  0.37989300  0.53457400  1
  Zn  Zn149  1  0.91338400  0.25548500  0.57632400  1
  Zn  Zn150  1  0.11330200  0.50785800  0.56950900  1
  Zn  Zn151  1  0.37232500  0.50620900  0.57018400  1
  Zn  Zn152  1  0.96845900  0.55981400  0.52093300  1
  Zn  Zn153  1  0.69708600  0.64210700  0.52922800  1
  Zn  Zn154  1  0.27242800  0.37852000  0.57376400  1
  Zn  Zn155  1  0.15708400  0.25295800  0.57547100  1
  Zn  Zn156  1  0.86960200  0.51038500  0.57036200  1
  Zn  Zn157  1  0.25822600  0.30352900  0.52490000  1
  Zn  Zn158  1  0.75542100  0.30766400  0.52512000  1
  Zn  Zn159  1  0.72996400  0.48345000  0.51126000  1
  Zn  Zn160  1  0.47126500  0.55567800  0.52071400  1
  Zn  Zn161  1  0.65436000  0.25713400  0.57565000  1
  Zn  Zn162  1  0.21334300  0.60667100  0.59791700  1
  Zn  Zn163  1  0.60952300  0.51499100  0.56998800  1
  Zn  Zn164  1  0.41716200  0.24835200  0.57584500  1
  Zn  Zn165  1  0.75425800  0.38482300  0.57206900  1
  Zn  Zn166  1  0.31334300  0.15667100  0.54791700  1
  Zn  Zn167  1  0.92960000  0.67123600  0.56660500  1
  Zn  Zn168  1  0.89672200  0.82989300  0.58457400  1
  Zn  Zn169  1  0.51338400  0.80548500  0.52632400  1
  Zn  Zn170  1  0.71330200  0.05785800  0.51950900  1
  Zn  Zn171  1  0.97232500  0.05620900  0.52018400  1
  Zn  Zn172  1  0.36845900  0.00981400  0.57093300  1
  Zn  Zn173  1  0.09708600  0.09210700  0.57922800  1
  Zn  Zn174  1  0.87242800  0.92852000  0.52376400  1
  Zn  Zn175  1  0.75708400  0.80295800  0.52547100  1
  Zn  Zn176  1  0.46960200  0.06038500  0.52036200  1
  Zn  Zn177  1  0.65822600  0.75352900  0.57490000  1
  Zn  Zn178  1  0.15542100  0.75766400  0.57512000  1
  Zn  Zn179  1  0.12996400  0.93345000  0.56126000  1
  Zn  Zn180  1  0.87126500  0.00567800  0.57071400  1
  Zn  Zn181  1  0.25436000  0.80713400  0.52565000  1
  Zn  Zn182  1  0.81334300  0.15667100  0.54791700  1
  Zn  Zn183  1  0.20952300  0.06499100  0.51998800  1
  Zn  Zn184  1  0.01716200  0.79835200  0.52584500  1
  Zn  Zn185  1  0.35425800  0.93482300  0.52206900  1
  Zn  Zn186  1  0.51334300  0.50667100  0.69791700  1
  Zn  Zn187  1  0.32960000  0.12123600  0.61660500  1
  Zn  Zn188  1  0.29672200  0.27989300  0.63457400  1
  Zn  Zn189  1  0.71338400  0.15548500  0.67632400  1
  Zn  Zn190  1  0.91330200  0.40785800  0.66950900  1
  Zn  Zn191  1  0.17232500  0.40620900  0.67018400  1
  Zn  Zn192  1  0.76845900  0.45981400  0.62093300  1
  Zn  Zn193  1  0.49708600  0.54210700  0.62922800  1
  Zn  Zn194  1  0.07242800  0.27852000  0.67376400  1
  Zn  Zn195  1  0.95708400  0.15295800  0.67547100  1
  Zn  Zn196  1  0.66960200  0.41038500  0.67036200  1
  Zn  Zn197  1  0.05822600  0.20352900  0.62490000  1
  Zn  Zn198  1  0.55542100  0.20766400  0.62512000  1
  Zn  Zn199  1  0.52996400  0.38345000  0.61126000  1
  Zn  Zn200  1  0.27126500  0.45567800  0.62071400  1
  Zn  Zn201  1  0.45436000  0.15713400  0.67565000  1
  Zn  Zn202  1  0.01334300  0.50667100  0.69791700  1
  Zn  Zn203  1  0.40952300  0.41499100  0.66998800  1
  Zn  Zn204  1  0.21716200  0.14835200  0.67584500  1
  Zn  Zn205  1  0.55425800  0.28482300  0.67206900  1
  Zn  Zn206  1  0.11334300  0.05667100  0.64791700  1
  Zn  Zn207  1  0.72960000  0.57123600  0.66660500  1
  Zn  Zn208  1  0.69672200  0.72989300  0.68457400  1
  Zn  Zn209  1  0.31338400  0.70548500  0.62632400  1
  Zn  Zn210  1  0.51330200  0.95785800  0.61950900  1
  Zn  Zn211  1  0.77232500  0.95620900  0.62018400  1
  Zn  Zn212  1  0.16845900  0.90981400  0.67093300  1
  Zn  Zn213  1  0.89708600  0.99210700  0.67922800  1
  Zn  Zn214  1  0.67242800  0.82852000  0.62376400  1
  Zn  Zn215  1  0.55708400  0.70295800  0.62547100  1
  Zn  Zn216  1  0.26960200  0.96038500  0.62036200  1
  Zn  Zn217  1  0.45822600  0.65352900  0.67490000  1
  Zn  Zn218  1  0.95542100  0.65766400  0.67512000  1
  Zn  Zn219  1  0.92996400  0.83345000  0.66126000  1
  Zn  Zn220  1  0.67126500  0.90567800  0.67071400  1
  Zn  Zn221  1  0.05436000  0.70713400  0.62565000  1
  Zn  Zn222  1  0.61334300  0.05667100  0.64791700  1
  Zn  Zn223  1  0.00952300  0.96499100  0.61998800  1
  Zn  Zn224  1  0.81716200  0.69835200  0.62584500  1
  Zn  Zn225  1  0.15425800  0.83482300  0.62206900  1
  Zn  Zn226  1  0.31334300  0.40667100  0.79791700  1
  Zn  Zn227  1  0.12960000  0.02123600  0.71660500  1
  Zn  Zn228  1  0.09672200  0.17989300  0.73457400  1
  Zn  Zn229  1  0.51338400  0.05548500  0.77632400  1
  Zn  Zn230  1  0.71330200  0.30785800  0.76950900  1
  Zn  Zn231  1  0.97232500  0.30620900  0.77018400  1
  Zn  Zn232  1  0.56845900  0.35981400  0.72093300  1
  Zn  Zn233  1  0.29708600  0.44210700  0.72922800  1
  Zn  Zn234  1  0.87242800  0.17852000  0.77376400  1
  Zn  Zn235  1  0.75708400  0.05295800  0.77547100  1
  Zn  Zn236  1  0.46960200  0.31038500  0.77036200  1
  Zn  Zn237  1  0.85822600  0.10352900  0.72490000  1
  Zn  Zn238  1  0.35542100  0.10766400  0.72512000  1
  Zn  Zn239  1  0.32996400  0.28345000  0.71126000  1
  Zn  Zn240  1  0.07126500  0.35567800  0.72071400  1
  Zn  Zn241  1  0.25436000  0.05713400  0.77565000  1
  Zn  Zn242  1  0.81334300  0.40667100  0.79791700  1
  Zn  Zn243  1  0.20952300  0.31499100  0.76998800  1
  Zn  Zn244  1  0.01716200  0.04835200  0.77584500  1
  Zn  Zn245  1  0.35425800  0.18482300  0.77206900  1
  Zn  Zn246  1  0.91334300  0.95667100  0.74791700  1
  Zn  Zn247  1  0.52960000  0.47123600  0.76660500  1
  Zn  Zn248  1  0.49672200  0.62989300  0.78457400  1
  Zn  Zn249  1  0.11338400  0.60548500  0.72632400  1
  Zn  Zn250  1  0.31330200  0.85785800  0.71950900  1
  Zn  Zn251  1  0.57232500  0.85620900  0.72018400  1
  Zn  Zn252  1  0.96845900  0.80981400  0.77093300  1
  Zn  Zn253  1  0.69708600  0.89210700  0.77922800  1
  Zn  Zn254  1  0.47242800  0.72852000  0.72376400  1
  Zn  Zn255  1  0.35708400  0.60295800  0.72547100  1
  Zn  Zn256  1  0.06960200  0.86038500  0.72036200  1
  Zn  Zn257  1  0.25822600  0.55352900  0.77490000  1
  Zn  Zn258  1  0.75542100  0.55766400  0.77512000  1
  Zn  Zn259  1  0.72996400  0.73345000  0.76126000  1
  Zn  Zn260  1  0.47126500  0.80567800  0.77071400  1
  Zn  Zn261  1  0.85436000  0.60713400  0.72565000  1
  Zn  Zn262  1  0.41334300  0.95667100  0.74791700  1
  Zn  Zn263  1  0.80952300  0.86499100  0.71998800  1
  Zn  Zn264  1  0.61716200  0.59835200  0.72584500  1
  Zn  Zn265  1  0.95425800  0.73482300  0.72206900  1
