# generated using pymatgen
data_Mg40Zn67
_symmetry_space_group_name_H-M   'P 1'
_cell_length_a   15.05205970
_cell_length_b   15.53344962
_cell_length_c   44.08704400
_cell_angle_alpha   96.16286714
_cell_angle_beta   84.01794547
_cell_angle_gamma   68.44884142
_symmetry_Int_Tables_number   1
_chemical_formula_structural   Mg40Zn67
_chemical_formula_sum   'Mg120 Zn201'
_cell_volume   9416.24976546
_cell_formula_units_Z   3
loop_
 _symmetry_equiv_pos_site_id
 _symmetry_equiv_pos_as_xyz
  1  'x, y, z'
loop_
 _atom_site_type_symbol
 _atom_site_label
 _atom_site_symmetry_multiplicity
 _atom_site_fract_x
 _atom_site_fract_y
 _atom_site_fract_z
 _atom_site_occupancy
  Mg  Mg0  1  0.78470300  0.13587700  0.23568300  1
  Mg  Mg1  1  0.13797900  0.35532000  0.26873100  1
  Mg  Mg2  1  0.66219400  0.70009800  0.25240100  1
  Mg  Mg3  1  0.95533900  0.11504800  0.27145200  1
  Mg  Mg4  1  0.99240700  0.42093300  0.22307400  1
  Mg  Mg5  1  0.64725100  0.04744600  0.27548500  1
  Mg  Mg6  1  0.77644200  0.48136200  0.25789300  1
  Mg  Mg7  1  0.16105300  0.00134400  0.24491200  1
  Mg  Mg8  1  0.67259200  0.35304400  0.22921400  1
  Mg  Mg9  1  0.12398500  0.69545900  0.29329000  1
  Mg  Mg10  1  0.45419800  0.41629400  0.26396300  1
  Mg  Mg11  1  0.44380100  0.76334900  0.28715000  1
  Mg  Mg12  1  0.11011500  0.19159400  0.29649200  1
  Mg  Mg13  1  0.76264000  0.82987200  0.28102900  1
  Mg  Mg14  1  0.35375200  0.28652000  0.23533500  1
  Mg  Mg15  1  0.33995000  0.63503000  0.25847100  1
  Mg  Mg16  1  0.33168900  0.98051500  0.28068000  1
  Mg  Mg17  1  0.46914100  0.06894600  0.24087900  1
  Mg  Mg18  1  0.97841300  0.76107200  0.24763300  1
  Mg  Mg19  1  0.00627700  0.92479800  0.21987200  1
  Mg  Mg20  1  0.88470300  0.23587700  0.33568300  1
  Mg  Mg21  1  0.23797900  0.45532000  0.36873100  1
  Mg  Mg22  1  0.76219400  0.80009800  0.35240100  1
  Mg  Mg23  1  0.05533900  0.21504800  0.37145200  1
  Mg  Mg24  1  0.09240700  0.52093300  0.32307400  1
  Mg  Mg25  1  0.74725100  0.14744600  0.37548500  1
  Mg  Mg26  1  0.87644200  0.58136200  0.35789300  1
  Mg  Mg27  1  0.26105300  0.10134400  0.34491200  1
  Mg  Mg28  1  0.77259200  0.45304400  0.32921400  1
  Mg  Mg29  1  0.22398500  0.79545900  0.39329000  1
  Mg  Mg30  1  0.55419800  0.51629400  0.36396300  1
  Mg  Mg31  1  0.54380100  0.86334900  0.38715000  1
  Mg  Mg32  1  0.21011500  0.29159400  0.39649200  1
  Mg  Mg33  1  0.86264000  0.92987200  0.38102900  1
  Mg  Mg34  1  0.45375200  0.38652000  0.33533500  1
  Mg  Mg35  1  0.43995000  0.73503000  0.35847100  1
  Mg  Mg36  1  0.43168900  0.08051500  0.38068000  1
  Mg  Mg37  1  0.56914100  0.16894600  0.34087900  1
  Mg  Mg38  1  0.07841300  0.86107200  0.34763300  1
  Mg  Mg39  1  0.10627700  0.02479800  0.31987200  1
  Mg  Mg40  1  0.98470300  0.33587700  0.43568300  1
  Mg  Mg41  1  0.33797900  0.55532000  0.46873100  1
  Mg  Mg42  1  0.86219400  0.90009800  0.45240100  1
  Mg  Mg43  1  0.15533900  0.31504800  0.47145200  1
  Mg  Mg44  1  0.19240700  0.62093300  0.42307400  1
  Mg  Mg45  1  0.84725100  0.24744600  0.47548500  1
  Mg  Mg46  1  0.97644200  0.68136200  0.45789300  1
  Mg  Mg47  1  0.36105300  0.20134400  0.44491200  1
  Mg  Mg48  1  0.87259200  0.55304400  0.42921400  1
  Mg  Mg49  1  0.32398500  0.89545900  0.49329000  1
  Mg  Mg50  1  0.65419800  0.61629400  0.46396300  1
  Mg  Mg51  1  0.64380100  0.96334900  0.48715000  1
  Mg  Mg52  1  0.31011500  0.39159400  0.49649200  1
  Mg  Mg53  1  0.96264000  0.02987200  0.48102900  1
  Mg  Mg54  1  0.55375200  0.48652000  0.43533500  1
  Mg  Mg55  1  0.53995000  0.83503000  0.45847100  1
  Mg  Mg56  1  0.53168900  0.18051500  0.48068000  1
  Mg  Mg57  1  0.66914100  0.26894600  0.44087900  1
  Mg  Mg58  1  0.17841300  0.96107200  0.44763300  1
  Mg  Mg59  1  0.20627700  0.12479800  0.41987200  1
  Mg  Mg60  1  0.08470300  0.43587700  0.53568300  1
  Mg  Mg61  1  0.43797900  0.65532000  0.56873100  1
  Mg  Mg62  1  0.96219400  0.00009800  0.55240100  1
  Mg  Mg63  1  0.25533900  0.41504800  0.57145200  1
  Mg  Mg64  1  0.29240700  0.72093300  0.52307400  1
  Mg  Mg65  1  0.94725100  0.34744600  0.57548500  1
  Mg  Mg66  1  0.07644200  0.78136200  0.55789300  1
  Mg  Mg67  1  0.46105300  0.30134400  0.54491200  1
  Mg  Mg68  1  0.97259200  0.65304400  0.52921400  1
  Mg  Mg69  1  0.42398500  0.99545900  0.59329000  1
  Mg  Mg70  1  0.75419800  0.71629400  0.56396300  1
  Mg  Mg71  1  0.74380100  0.06334900  0.58715000  1
  Mg  Mg72  1  0.41011500  0.49159400  0.59649200  1
  Mg  Mg73  1  0.06264000  0.12987200  0.58102900  1
  Mg  Mg74  1  0.65375200  0.58652000  0.53533500  1
  Mg  Mg75  1  0.63995000  0.93503000  0.55847100  1
  Mg  Mg76  1  0.63168900  0.28051500  0.58068000  1
  Mg  Mg77  1  0.76914100  0.36894600  0.54087900  1
  Mg  Mg78  1  0.27841300  0.06107200  0.54763300  1
  Mg  Mg79  1  0.30627700  0.22479800  0.51987200  1
  Mg  Mg80  1  0.18470300  0.53587700  0.63568300  1
  Mg  Mg81  1  0.53797900  0.75532000  0.66873100  1
  Mg  Mg82  1  0.06219400  0.10009800  0.65240100  1
  Mg  Mg83  1  0.35533900  0.51504800  0.67145200  1
  Mg  Mg84  1  0.39240700  0.82093300  0.62307400  1
  Mg  Mg85  1  0.04725100  0.44744600  0.67548500  1
  Mg  Mg86  1  0.17644200  0.88136200  0.65789300  1
  Mg  Mg87  1  0.56105300  0.40134400  0.64491200  1
  Mg  Mg88  1  0.07259200  0.75304400  0.62921400  1
  Mg  Mg89  1  0.52398500  0.09545900  0.69329000  1
  Mg  Mg90  1  0.85419800  0.81629400  0.66396300  1
  Mg  Mg91  1  0.84380100  0.16334900  0.68715000  1
  Mg  Mg92  1  0.51011500  0.59159400  0.69649200  1
  Mg  Mg93  1  0.16264000  0.22987200  0.68102900  1
  Mg  Mg94  1  0.75375200  0.68652000  0.63533500  1
  Mg  Mg95  1  0.73995000  0.03503000  0.65847100  1
  Mg  Mg96  1  0.73168900  0.38051500  0.68068000  1
  Mg  Mg97  1  0.86914100  0.46894600  0.64087900  1
  Mg  Mg98  1  0.37841300  0.16107200  0.64763300  1
  Mg  Mg99  1  0.40627700  0.32479800  0.61987200  1
  Mg  Mg100  1  0.28470300  0.63587700  0.73568300  1
  Mg  Mg101  1  0.63797900  0.85532000  0.76873100  1
  Mg  Mg102  1  0.16219400  0.20009800  0.75240100  1
  Mg  Mg103  1  0.45533900  0.61504800  0.77145200  1
  Mg  Mg104  1  0.49240700  0.92093300  0.72307400  1
  Mg  Mg105  1  0.14725100  0.54744600  0.77548500  1
  Mg  Mg106  1  0.27644200  0.98136200  0.75789300  1
  Mg  Mg107  1  0.66105300  0.50134400  0.74491200  1
  Mg  Mg108  1  0.17259200  0.85304400  0.72921400  1
  Mg  Mg109  1  0.62398500  0.19545900  0.79329000  1
  Mg  Mg110  1  0.95419800  0.91629400  0.76396300  1
  Mg  Mg111  1  0.94380100  0.26334900  0.78715000  1
  Mg  Mg112  1  0.61011500  0.69159400  0.79649200  1
  Mg  Mg113  1  0.26264000  0.32987200  0.78102900  1
  Mg  Mg114  1  0.85375200  0.78652000  0.73533500  1
  Mg  Mg115  1  0.83995000  0.13503000  0.75847100  1
  Mg  Mg116  1  0.83168900  0.48051500  0.78068000  1
  Mg  Mg117  1  0.96914100  0.56894600  0.74087900  1
  Mg  Mg118  1  0.47841300  0.26107200  0.74763300  1
  Mg  Mg119  1  0.50627700  0.42479800  0.71987200  1
  Zn  Zn120  1  0.93883900  0.49734400  0.28962000  1
  Zn  Zn121  1  0.07025600  0.21711100  0.23448400  1
  Zn  Zn122  1  0.61138300  0.43494200  0.29778000  1
  Zn  Zn123  1  0.18098800  0.78794600  0.23624200  1
  Zn  Zn124  1  0.88840400  0.27857500  0.22902900  1
  Zn  Zn125  1  0.55819600  0.55819600  0.25818200  1
  Zn  Zn126  1  0.17755300  0.61904800  0.22674400  1
  Zn  Zn127  1  0.46329000  0.22541600  0.28830800  1
  Zn  Zn128  1  0.87325100  0.62907000  0.25217900  1
  Zn  Zn129  1  0.61654500  0.26119500  0.28565800  1
  Zn  Zn130  1  0.04613600  0.89928100  0.28188000  1
  Zn  Zn131  1  0.65310300  0.89097600  0.22805600  1
  Zn  Zn132  1  0.81412900  0.92617600  0.22581800  1
  Zn  Zn133  1  0.24314100  0.48732200  0.26418500  1
  Zn  Zn134  1  0.22798800  0.83781700  0.28733400  1
  Zn  Zn135  1  0.30226300  0.19021600  0.29054500  1
  Zn  Zn136  1  0.77865100  0.29698800  0.28151200  1
  Zn  Zn137  1  0.56572500  0.21135400  0.23634200  1
  Zn  Zn138  1  0.86485200  0.97607600  0.27390000  1
  Zn  Zn139  1  0.33774100  0.81940400  0.23485200  1
  Zn  Zn140  1  0.25154000  0.14031600  0.24246300  1
  Zn  Zn141  1  0.55066700  0.90503800  0.28002100  1
  Zn  Zn142  1  0.93540400  0.32844600  0.28012100  1
  Zn  Zn143  1  0.05819600  0.55819600  0.25818200  1
  Zn  Zn144  1  0.49984700  0.85519700  0.23070600  1
  Zn  Zn145  1  0.50500900  0.68145000  0.21858400  1
  Zn  Zn146  1  0.03883900  0.59734400  0.38962000  1
  Zn  Zn147  1  0.17025600  0.31711100  0.33448400  1
  Zn  Zn148  1  0.71138300  0.53494200  0.39778000  1
  Zn  Zn149  1  0.28098800  0.88794600  0.33624200  1
  Zn  Zn150  1  0.29216900  0.53683900  0.31358900  1
  Zn  Zn151  1  0.98840400  0.37857500  0.32902900  1
  Zn  Zn152  1  0.65819600  0.65819600  0.35818200  1
  Zn  Zn153  1  0.27755300  0.71904800  0.32674400  1
  Zn  Zn154  1  0.56329000  0.32541600  0.38830800  1
  Zn  Zn155  1  0.97325100  0.72907000  0.35217900  1
  Zn  Zn156  1  0.71654500  0.36119500  0.38565800  1
  Zn  Zn157  1  0.76441900  0.14241000  0.30559200  1
  Zn  Zn158  1  0.76837800  0.63903700  0.30542200  1
  Zn  Zn159  1  0.92300500  0.84656400  0.31417200  1
  Zn  Zn160  1  0.14613600  0.99928100  0.38188000  1
  Zn  Zn161  1  0.75310300  0.99097600  0.32805600  1
  Zn  Zn162  1  0.91412900  0.02617600  0.32581800  1
  Zn  Zn163  1  0.34314100  0.58732200  0.36418500  1
  Zn  Zn164  1  0.32798800  0.93781700  0.38733400  1
  Zn  Zn165  1  0.44801400  0.57735500  0.31094200  1
  Zn  Zn166  1  0.40226300  0.29021600  0.39054500  1
  Zn  Zn167  1  0.92422400  0.67955300  0.30277400  1
  Zn  Zn168  1  0.60819600  0.60819600  0.30818200  1
  Zn  Zn169  1  0.87865100  0.39698800  0.38151200  1
  Zn  Zn170  1  0.66572500  0.31135400  0.33634200  1
  Zn  Zn171  1  0.96485200  0.07607600  0.37390000  1
  Zn  Zn172  1  0.43774100  0.91940400  0.33485200  1
  Zn  Zn173  1  0.35154000  0.24031600  0.34246300  1
  Zn  Zn174  1  0.29338700  0.36982900  0.30219100  1
  Zn  Zn175  1  0.65066700  0.00503800  0.38002100  1
  Zn  Zn176  1  0.03540400  0.42844600  0.38012100  1
  Zn  Zn177  1  0.15819600  0.65819600  0.35818200  1
  Zn  Zn178  1  0.59984700  0.95519700  0.33070600  1
  Zn  Zn179  1  0.45197300  0.07398200  0.31077200  1
  Zn  Zn180  1  0.60500900  0.78145000  0.31858400  1
  Zn  Zn181  1  0.13883900  0.69734400  0.48962000  1
  Zn  Zn182  1  0.27025600  0.41711100  0.43448400  1
  Zn  Zn183  1  0.81138300  0.63494200  0.49778000  1
  Zn  Zn184  1  0.38098800  0.98794600  0.43624200  1
  Zn  Zn185  1  0.39216900  0.63683900  0.41358900  1
  Zn  Zn186  1  0.08840400  0.47857500  0.42902900  1
  Zn  Zn187  1  0.75819600  0.75819600  0.45818200  1
  Zn  Zn188  1  0.37755300  0.81904800  0.42674400  1
  Zn  Zn189  1  0.66329000  0.42541600  0.48830800  1
  Zn  Zn190  1  0.07325100  0.82907000  0.45217900  1
  Zn  Zn191  1  0.81654500  0.46119500  0.48565800  1
  Zn  Zn192  1  0.86441900  0.24241000  0.40559200  1
  Zn  Zn193  1  0.86837800  0.73903700  0.40542200  1
  Zn  Zn194  1  0.02300500  0.94656400  0.41417200  1
  Zn  Zn195  1  0.24613600  0.09928100  0.48188000  1
  Zn  Zn196  1  0.85310300  0.09097600  0.42805600  1
  Zn  Zn197  1  0.01412900  0.12617600  0.42581800  1
  Zn  Zn198  1  0.44314100  0.68732200  0.46418500  1
  Zn  Zn199  1  0.42798800  0.03781700  0.48733400  1
  Zn  Zn200  1  0.54801400  0.67735500  0.41094200  1
  Zn  Zn201  1  0.50226300  0.39021600  0.49054500  1
  Zn  Zn202  1  0.02422400  0.77955300  0.40277400  1
  Zn  Zn203  1  0.70819600  0.70819600  0.40818200  1
  Zn  Zn204  1  0.97865100  0.49698800  0.48151200  1
  Zn  Zn205  1  0.76572500  0.41135400  0.43634200  1
  Zn  Zn206  1  0.06485200  0.17607600  0.47390000  1
  Zn  Zn207  1  0.53774100  0.01940400  0.43485200  1
  Zn  Zn208  1  0.45154000  0.34031600  0.44246300  1
  Zn  Zn209  1  0.39338700  0.46982900  0.40219100  1
  Zn  Zn210  1  0.75066700  0.10503800  0.48002100  1
  Zn  Zn211  1  0.13540400  0.52844600  0.48012100  1
  Zn  Zn212  1  0.25819600  0.75819600  0.45818200  1
  Zn  Zn213  1  0.69984700  0.05519700  0.43070600  1
  Zn  Zn214  1  0.55197300  0.17398200  0.41077200  1
  Zn  Zn215  1  0.70500900  0.88145000  0.41858400  1
  Zn  Zn216  1  0.23883900  0.79734400  0.58962000  1
  Zn  Zn217  1  0.37025600  0.51711100  0.53448400  1
  Zn  Zn218  1  0.91138300  0.73494200  0.59778000  1
  Zn  Zn219  1  0.48098800  0.08794600  0.53624200  1
  Zn  Zn220  1  0.49216900  0.73683900  0.51358900  1
  Zn  Zn221  1  0.18840400  0.57857500  0.52902900  1
  Zn  Zn222  1  0.85819600  0.85819600  0.55818200  1
  Zn  Zn223  1  0.47755300  0.91904800  0.52674400  1
  Zn  Zn224  1  0.76329000  0.52541600  0.58830800  1
  Zn  Zn225  1  0.17325100  0.92907000  0.55217900  1
  Zn  Zn226  1  0.91654500  0.56119500  0.58565800  1
  Zn  Zn227  1  0.96441900  0.34241000  0.50559200  1
  Zn  Zn228  1  0.96837800  0.83903700  0.50542200  1
  Zn  Zn229  1  0.12300500  0.04656400  0.51417200  1
  Zn  Zn230  1  0.34613600  0.19928100  0.58188000  1
  Zn  Zn231  1  0.95310300  0.19097600  0.52805600  1
  Zn  Zn232  1  0.11412900  0.22617600  0.52581800  1
  Zn  Zn233  1  0.54314100  0.78732200  0.56418500  1
  Zn  Zn234  1  0.52798800  0.13781700  0.58733400  1
  Zn  Zn235  1  0.64801400  0.77735500  0.51094200  1
  Zn  Zn236  1  0.60226300  0.49021600  0.59054500  1
  Zn  Zn237  1  0.12422400  0.87955300  0.50277400  1
  Zn  Zn238  1  0.80819600  0.80819600  0.50818200  1
  Zn  Zn239  1  0.07865100  0.59698800  0.58151200  1
  Zn  Zn240  1  0.86572500  0.51135400  0.53634200  1
  Zn  Zn241  1  0.16485200  0.27607600  0.57390000  1
  Zn  Zn242  1  0.63774100  0.11940400  0.53485200  1
  Zn  Zn243  1  0.55154000  0.44031600  0.54246300  1
  Zn  Zn244  1  0.49338700  0.56982900  0.50219100  1
  Zn  Zn245  1  0.85066700  0.20503800  0.58002100  1
  Zn  Zn246  1  0.23540400  0.62844600  0.58012100  1
  Zn  Zn247  1  0.35819600  0.85819600  0.55818200  1
  Zn  Zn248  1  0.79984700  0.15519700  0.53070600  1
  Zn  Zn249  1  0.65197300  0.27398200  0.51077200  1
  Zn  Zn250  1  0.80500900  0.98145000  0.51858400  1
  Zn  Zn251  1  0.33883900  0.89734400  0.68962000  1
  Zn  Zn252  1  0.47025600  0.61711100  0.63448400  1
  Zn  Zn253  1  0.01138300  0.83494200  0.69778000  1
  Zn  Zn254  1  0.58098800  0.18794600  0.63624200  1
  Zn  Zn255  1  0.59216900  0.83683900  0.61358900  1
  Zn  Zn256  1  0.28840400  0.67857500  0.62902900  1
  Zn  Zn257  1  0.95819600  0.95819600  0.65818200  1
  Zn  Zn258  1  0.57755300  0.01904800  0.62674400  1
  Zn  Zn259  1  0.86329000  0.62541600  0.68830800  1
  Zn  Zn260  1  0.27325100  0.02907000  0.65217900  1
  Zn  Zn261  1  0.01654500  0.66119500  0.68565800  1
  Zn  Zn262  1  0.06441900  0.44241000  0.60559200  1
  Zn  Zn263  1  0.06837800  0.93903700  0.60542200  1
  Zn  Zn264  1  0.22300500  0.14656400  0.61417200  1
  Zn  Zn265  1  0.44613600  0.29928100  0.68188000  1
  Zn  Zn266  1  0.05310300  0.29097600  0.62805600  1
  Zn  Zn267  1  0.21412900  0.32617600  0.62581800  1
  Zn  Zn268  1  0.64314100  0.88732200  0.66418500  1
  Zn  Zn269  1  0.62798800  0.23781700  0.68733400  1
  Zn  Zn270  1  0.74801400  0.87735500  0.61094200  1
  Zn  Zn271  1  0.70226300  0.59021600  0.69054500  1
  Zn  Zn272  1  0.22422400  0.97955300  0.60277400  1
  Zn  Zn273  1  0.90819600  0.90819600  0.60818200  1
  Zn  Zn274  1  0.17865100  0.69698800  0.68151200  1
  Zn  Zn275  1  0.96572500  0.61135400  0.63634200  1
  Zn  Zn276  1  0.26485200  0.37607600  0.67390000  1
  Zn  Zn277  1  0.73774100  0.21940400  0.63485200  1
  Zn  Zn278  1  0.65154000  0.54031600  0.64246300  1
  Zn  Zn279  1  0.59338700  0.66982900  0.60219100  1
  Zn  Zn280  1  0.95066700  0.30503800  0.68002100  1
  Zn  Zn281  1  0.33540400  0.72844600  0.68012100  1
  Zn  Zn282  1  0.45819600  0.95819600  0.65818200  1
  Zn  Zn283  1  0.89984700  0.25519700  0.63070600  1
  Zn  Zn284  1  0.75197300  0.37398200  0.61077200  1
  Zn  Zn285  1  0.90500900  0.08145000  0.61858400  1
  Zn  Zn286  1  0.43883900  0.99734400  0.78962000  1
  Zn  Zn287  1  0.57025600  0.71711100  0.73448400  1
  Zn  Zn288  1  0.11138300  0.93494200  0.79778000  1
  Zn  Zn289  1  0.68098800  0.28794600  0.73624200  1
  Zn  Zn290  1  0.69216900  0.93683900  0.71358900  1
  Zn  Zn291  1  0.38840400  0.77857500  0.72902900  1
  Zn  Zn292  1  0.05819600  0.05819600  0.75818200  1
  Zn  Zn293  1  0.67755300  0.11904800  0.72674400  1
  Zn  Zn294  1  0.96329000  0.72541600  0.78830800  1
  Zn  Zn295  1  0.37325100  0.12907000  0.75217900  1
  Zn  Zn296  1  0.11654500  0.76119500  0.78565800  1
  Zn  Zn297  1  0.16441900  0.54241000  0.70559200  1
  Zn  Zn298  1  0.16837800  0.03903700  0.70542200  1
  Zn  Zn299  1  0.32300500  0.24656400  0.71417200  1
  Zn  Zn300  1  0.54613600  0.39928100  0.78188000  1
  Zn  Zn301  1  0.15310300  0.39097600  0.72805600  1
  Zn  Zn302  1  0.31412900  0.42617600  0.72581800  1
  Zn  Zn303  1  0.74314100  0.98732200  0.76418500  1
  Zn  Zn304  1  0.72798800  0.33781700  0.78733400  1
  Zn  Zn305  1  0.84801400  0.97735500  0.71094200  1
  Zn  Zn306  1  0.80226300  0.69021600  0.79054500  1
  Zn  Zn307  1  0.32422400  0.07955300  0.70277400  1
  Zn  Zn308  1  0.00819600  0.00819600  0.70818200  1
  Zn  Zn309  1  0.27865100  0.79698800  0.78151200  1
  Zn  Zn310  1  0.06572500  0.71135400  0.73634200  1
  Zn  Zn311  1  0.36485200  0.47607600  0.77390000  1
  Zn  Zn312  1  0.83774100  0.31940400  0.73485200  1
  Zn  Zn313  1  0.75154000  0.64031600  0.74246300  1
  Zn  Zn314  1  0.69338700  0.76982900  0.70219100  1
  Zn  Zn315  1  0.05066700  0.40503800  0.78002100  1
  Zn  Zn316  1  0.43540400  0.82844600  0.78012100  1
  Zn  Zn317  1  0.55819600  0.05819600  0.75818200  1
  Zn  Zn318  1  0.99984700  0.35519700  0.73070600  1
  Zn  Zn319  1  0.85197300  0.47398200  0.71077200  1
  Zn  Zn320  1  0.00500900  0.18145000  0.71858400  1
