# generated using pymatgen
data_CeMg
_symmetry_space_group_name_H-M   'P 1'
_cell_length_a   3.48032000
_cell_length_b   5.83029931
_cell_length_c   51.57883300
_cell_angle_alpha   92.73522403
_cell_angle_beta   90.00000000
_cell_angle_gamma   90.00000000
_symmetry_Int_Tables_number   1
_chemical_formula_structural   CeMg
_chemical_formula_sum   'Ce12 Mg12'
_cell_volume   1045.40958362
_cell_formula_units_Z   12
loop_
 _symmetry_equiv_pos_site_id
 _symmetry_equiv_pos_as_xyz
  1  'x, y, z'
loop_
 _atom_site_type_symbol
 _atom_site_label
 _atom_site_symmetry_multiplicity
 _atom_site_fract_x
 _atom_site_fract_y
 _atom_site_fract_z
 _atom_site_occupancy
  Ce  Ce0  1  0.50000000  0.20145000  0.27901100  1
  Ce  Ce1  1  1.00000000  0.19855000  0.32098900  1
  Ce  Ce2  1  0.00000000  0.90145000  0.37901100  1
  Ce  Ce3  1  0.50000000  0.49855000  0.22098900  1
  Ce  Ce4  1  0.50000000  0.60145000  0.47901100  1
  Ce  Ce5  1  1.00000000  0.59855000  0.52098900  1
  Ce  Ce6  1  1.00000000  0.30145000  0.57901100  1
  Ce  Ce7  1  0.50000000  0.89855000  0.42098900  1
  Ce  Ce8  1  0.50000000  0.00145000  0.67901100  1
  Ce  Ce9  1  1.00000000  0.99855000  0.72098900  1
  Ce  Ce10  1  1.00000000  0.70145000  0.77901100  1
  Ce  Ce11  1  0.50000000  0.29855000  0.62098900  1
  Mg  Mg12  1  0.50000000  0.70059400  0.32431200  1
  Mg  Mg13  1  1.00000000  0.69940600  0.27568800  1
  Mg  Mg14  1  1.00000000  0.00059400  0.22431200  1
  Mg  Mg15  1  0.50000000  0.39940600  0.37568800  1
  Mg  Mg16  1  0.50000000  0.10059400  0.52431200  1
  Mg  Mg17  1  1.00000000  0.09940600  0.47568800  1
  Mg  Mg18  1  0.00000000  0.40059400  0.42431200  1
  Mg  Mg19  1  0.50000000  0.79940600  0.57568800  1
  Mg  Mg20  1  0.50000000  0.50059400  0.72431200  1
  Mg  Mg21  1  1.00000000  0.49940600  0.67568800  1
  Mg  Mg22  1  1.00000000  0.80059400  0.62431200  1
  Mg  Mg23  1  0.50000000  0.19940600  0.77568800  1
