# generated using pymatgen
data_Mg12Sc23
_symmetry_space_group_name_H-M   'P 1'
_cell_length_a   3.35466600
_cell_length_b   17.27528044
_cell_length_c   49.31366500
_cell_angle_alpha   92.13654328
_cell_angle_beta   90.00000000
_cell_angle_gamma   90.00000000
_symmetry_Int_Tables_number   1
_chemical_formula_structural   Mg12Sc23
_chemical_formula_sum   'Mg24 Sc46'
_cell_volume   2855.87803226
_cell_formula_units_Z   2
loop_
 _symmetry_equiv_pos_site_id
 _symmetry_equiv_pos_as_xyz
  1  'x, y, z'
loop_
 _atom_site_type_symbol
 _atom_site_label
 _atom_site_symmetry_multiplicity
 _atom_site_fract_x
 _atom_site_fract_y
 _atom_site_fract_z
 _atom_site_occupancy
  Mg  Mg0  1  0.50000000  0.62262100  0.26042600  1
  Mg  Mg1  1  0.00000000  0.01029700  0.27290700  1
  Mg  Mg2  1  0.00000000  0.07262100  0.21042600  1
  Mg  Mg3  1  0.50000000  0.46029700  0.22290700  1
  Mg  Mg4  1  0.50000000  0.72262100  0.36042600  1
  Mg  Mg5  1  0.00000000  0.11029700  0.37290700  1
  Mg  Mg6  1  0.00000000  0.17262100  0.31042600  1
  Mg  Mg7  1  0.50000000  0.56029700  0.32290700  1
  Mg  Mg8  1  0.50000000  0.82262100  0.46042600  1
  Mg  Mg9  1  0.00000000  0.21029700  0.47290700  1
  Mg  Mg10  1  0.00000000  0.27262100  0.41042600  1
  Mg  Mg11  1  0.50000000  0.66029700  0.42290700  1
  Mg  Mg12  1  0.50000000  0.92262100  0.56042600  1
  Mg  Mg13  1  0.00000000  0.31029700  0.57290700  1
  Mg  Mg14  1  0.00000000  0.37262100  0.51042600  1
  Mg  Mg15  1  0.50000000  0.76029700  0.52290700  1
  Mg  Mg16  1  0.50000000  0.02262100  0.66042600  1
  Mg  Mg17  1  0.00000000  0.41029700  0.67290700  1
  Mg  Mg18  1  1.00000000  0.47262100  0.61042600  1
  Mg  Mg19  1  0.50000000  0.86029700  0.62290700  1
  Mg  Mg20  1  0.50000000  0.12262100  0.76042600  1
  Mg  Mg21  1  0.00000000  0.51029700  0.77290700  1
  Mg  Mg22  1  0.00000000  0.57262100  0.71042600  1
  Mg  Mg23  1  0.50000000  0.96029700  0.72290700  1
  Sc  Sc24  1  0.50000000  0.92430000  0.22690700  1
  Sc  Sc25  1  0.00000000  0.77055900  0.24398900  1
  Sc  Sc26  1  0.00000000  0.60861800  0.20642700  1
  Sc  Sc27  1  0.50000000  0.86235900  0.28934400  1
  Sc  Sc28  1  1.00000000  0.47430000  0.27690700  1
  Sc  Sc29  1  0.50000000  0.32055900  0.29398900  1
  Sc  Sc30  1  0.50000000  0.15861800  0.25642700  1
  Sc  Sc31  1  0.00000000  0.31235900  0.23934400  1
  Sc  Sc32  1  0.50000000  0.02430000  0.32690700  1
  Sc  Sc33  1  0.00000000  0.87055900  0.34398900  1
  Sc  Sc34  1  0.00000000  0.70861800  0.30642700  1
  Sc  Sc35  1  0.50000000  0.96235900  0.38934400  1
  Sc  Sc36  1  1.00000000  0.57430000  0.37690700  1
  Sc  Sc37  1  0.50000000  0.42055900  0.39398900  1
  Sc  Sc38  1  0.50000000  0.25861800  0.35642700  1
  Sc  Sc39  1  0.00000000  0.41235900  0.33934400  1
  Sc  Sc40  1  0.50000000  0.12430000  0.42690700  1
  Sc  Sc41  1  0.00000000  0.97055900  0.44398900  1
  Sc  Sc42  1  0.00000000  0.80861800  0.40642700  1
  Sc  Sc43  1  0.50000000  0.06235900  0.48934400  1
  Sc  Sc44  1  1.00000000  0.67430000  0.47690700  1
  Sc  Sc45  1  0.50000000  0.52055900  0.49398900  1
  Sc  Sc46  1  0.50000000  0.35861800  0.45642700  1
  Sc  Sc47  1  1.00000000  0.51235900  0.43934400  1
  Sc  Sc48  1  0.50000000  0.22430000  0.52690700  1
  Sc  Sc49  1  0.00000000  0.07055900  0.54398900  1
  Sc  Sc50  1  0.00000000  0.90861800  0.50642700  1
  Sc  Sc51  1  0.50000000  0.16235900  0.58934400  1
  Sc  Sc52  1  1.00000000  0.77430000  0.57690700  1
  Sc  Sc53  1  0.50000000  0.62055900  0.59398900  1
  Sc  Sc54  1  0.50000000  0.45861800  0.55642700  1
  Sc  Sc55  1  1.00000000  0.61235900  0.53934400  1
  Sc  Sc56  1  0.50000000  0.32430000  0.62690700  1
  Sc  Sc57  1  0.00000000  0.17055900  0.64398900  1
  Sc  Sc58  1  0.00000000  0.00861800  0.60642700  1
  Sc  Sc59  1  0.50000000  0.26235900  0.68934400  1
  Sc  Sc60  1  0.00000000  0.87430000  0.67690700  1
  Sc  Sc61  1  0.50000000  0.72055900  0.69398900  1
  Sc  Sc62  1  0.50000000  0.55861800  0.65642700  1
  Sc  Sc63  1  0.00000000  0.71235900  0.63934400  1
  Sc  Sc64  1  0.50000000  0.42430000  0.72690700  1
  Sc  Sc65  1  0.00000000  0.27055900  0.74398900  1
  Sc  Sc66  1  1.00000000  0.10861800  0.70642700  1
  Sc  Sc67  1  0.00000000  0.97430000  0.77690700  1
  Sc  Sc68  1  0.50000000  0.65861800  0.75642700  1
  Sc  Sc69  1  1.00000000  0.81235900  0.73934400  1
