# generated using pymatgen
data_La14Mg113
_symmetry_space_group_name_H-M   'P 1'
_cell_length_a   10.38875200
_cell_length_b   14.48655120
_cell_length_c   47.03743100
_cell_angle_alpha   91.51171628
_cell_angle_beta   90.00000000
_cell_angle_gamma   68.98788168
_symmetry_Int_Tables_number   1
_chemical_formula_structural   La14Mg113
_chemical_formula_sum   'La14 Mg113'
_cell_volume   6605.64073251
_cell_formula_units_Z   1
loop_
 _symmetry_equiv_pos_site_id
 _symmetry_equiv_pos_as_xyz
  1  'x, y, z'
loop_
 _atom_site_type_symbol
 _atom_site_label
 _atom_site_symmetry_multiplicity
 _atom_site_fract_x
 _atom_site_fract_y
 _atom_site_fract_z
 _atom_site_occupancy
  La  La0  1  0.40539700  0.18920700  0.34461200  1
  La  La1  1  0.11968200  0.76063500  0.32080200  1
  La  La2  1  0.11968200  0.76063500  0.48746900  1
  La  La3  1  0.83396800  0.33206400  0.46365900  1
  La  La4  1  0.69111100  0.61777800  0.36842100  1
  La  La5  1  0.54825400  0.90349200  0.43985000  1
  La  La6  1  0.83396800  0.33206400  0.63032600  1
  La  La7  1  0.54825400  0.90349200  0.60651600  1
  La  La8  1  0.40539700  0.18920700  0.51127800  1
  La  La9  1  0.26254000  0.47492100  0.58270700  1
  La  La10  1  0.54825400  0.90349200  0.77318300  1
  La  La11  1  0.26254000  0.47492100  0.74937300  1
  La  La12  1  0.11968200  0.76063500  0.65413500  1
  La  La13  1  0.97682500  0.04634900  0.72556400  1
  Mg  Mg14  1  0.47847300  0.55638500  0.31251700  1
  Mg  Mg15  1  0.96514200  0.55638500  0.31251700  1
  Mg  Mg16  1  0.26254000  0.97492100  0.33270700  1
  Mg  Mg17  1  0.76254000  0.97492100  0.33270700  1
  Mg  Mg18  1  0.26254000  0.47492100  0.33270700  1
  Mg  Mg19  1  0.46634500  0.77333300  0.31656900  1
  Mg  Mg20  1  0.05873400  0.17650800  0.34884400  1
  Mg  Mg21  1  0.76032100  0.77333300  0.31656900  1
  Mg  Mg22  1  0.76475800  0.17650800  0.34884400  1
  Mg  Mg23  1  0.04660600  0.39345700  0.35289700  1
  Mg  Mg24  1  0.55993700  0.39345700  0.35289700  1
  Mg  Mg25  1  0.19275900  0.12781300  0.45537400  1
  Mg  Mg26  1  0.82609400  0.34781200  0.38204100  1
  Mg  Mg27  1  0.67942800  0.12781300  0.45537400  1
  Mg  Mg28  1  0.40514000  0.70305100  0.43029500  1
  Mg  Mg29  1  0.02015800  0.95968300  0.37056400  1
  Mg  Mg30  1  0.30587300  0.38825500  0.39437400  1
  Mg  Mg31  1  0.21920600  0.56158700  0.43770700  1
  Mg  Mg32  1  0.93349200  0.13301600  0.41389700  1
  Mg  Mg33  1  0.11968200  0.76063500  0.40413500  1
  Mg  Mg34  1  0.61968200  0.26063500  0.40413500  1
  Mg  Mg35  1  0.11968200  0.26063500  0.40413500  1
  Mg  Mg36  1  0.97682500  0.54634900  0.47556400  1
  Mg  Mg37  1  0.47682500  0.54634900  0.47556400  1
  Mg  Mg38  1  0.97682500  0.04634900  0.47556400  1
  Mg  Mg39  1  0.19514700  0.91827500  0.43492200  1
  Mg  Mg40  1  0.56276900  0.47700600  0.41534500  1
  Mg  Mg41  1  0.18063100  0.34476200  0.45942600  1
  Mg  Mg42  1  0.77301900  0.74793700  0.49170100  1
  Mg  Mg43  1  0.67659500  0.04426500  0.39292500  1
  Mg  Mg44  1  0.35278700  0.60299500  0.37334900  1
  Mg  Mg45  1  0.47460700  0.34476200  0.45942600  1
  Mg  Mg46  1  0.04421800  0.60299500  0.37334900  1
  Mg  Mg47  1  0.96022500  0.47700600  0.41534500  1
  Mg  Mg48  1  0.27914000  0.04426500  0.39292500  1
  Mg  Mg49  1  0.88657800  0.91827500  0.43492200  1
  Mg  Mg50  1  0.47904400  0.74793700  0.49170100  1
  Mg  Mg51  1  0.69517600  0.60964700  0.44750000  1
  Mg  Mg52  1  0.76089200  0.96488600  0.49575400  1
  Mg  Mg53  1  0.27422300  0.96488600  0.49575400  1
  Mg  Mg54  1  0.83422500  0.81822000  0.37797600  1
  Mg  Mg55  1  0.34755600  0.81822000  0.37797600  1
  Mg  Mg56  1  0.54418800  0.91162300  0.36077100  1
  Mg  Mg57  1  0.89180900  0.70305100  0.43029500  1
  Mg  Mg58  1  0.41327100  0.17345800  0.42623000  1
  Mg  Mg59  1  0.90704500  0.69924200  0.59823100  1
  Mg  Mg60  1  0.54038000  0.91924100  0.52489800  1
  Mg  Mg61  1  0.39371400  0.69924200  0.59823100  1
  Mg  Mg62  1  0.11942600  0.27447900  0.57315200  1
  Mg  Mg63  1  0.73444400  0.53111200  0.51342100  1
  Mg  Mg64  1  0.02015800  0.95968300  0.53723100  1
  Mg  Mg65  1  0.93349200  0.13301600  0.58056400  1
  Mg  Mg66  1  0.64777800  0.70444400  0.55675400  1
  Mg  Mg67  1  0.83396800  0.33206400  0.54699200  1
  Mg  Mg68  1  0.33396800  0.83206400  0.54699200  1
  Mg  Mg69  1  0.83396800  0.83206400  0.54699200  1
  Mg  Mg70  1  0.69111100  0.11777800  0.61842100  1
  Mg  Mg71  1  0.19111100  0.11777800  0.61842100  1
  Mg  Mg72  1  0.69111100  0.61777800  0.61842100  1
  Mg  Mg73  1  0.90943300  0.48970400  0.57777900  1
  Mg  Mg74  1  0.27705500  0.04843400  0.55820200  1
  Mg  Mg75  1  0.89491700  0.91619000  0.60228400  1
  Mg  Mg76  1  0.48730500  0.31936600  0.63455900  1
  Mg  Mg77  1  0.39088100  0.61569300  0.53578300  1
  Mg  Mg78  1  0.06707200  0.17442400  0.51620600  1
  Mg  Mg79  1  0.18889300  0.91619000  0.60228400  1
  Mg  Mg80  1  0.75850400  0.17442400  0.51620600  1
  Mg  Mg81  1  0.67451100  0.04843400  0.55820200  1
  Mg  Mg82  1  0.99342600  0.61569300  0.53578300  1
  Mg  Mg83  1  0.60086400  0.48970400  0.57777900  1
  Mg  Mg84  1  0.19332900  0.31936600  0.63455900  1
  Mg  Mg85  1  0.40946200  0.18107600  0.59035700  1
  Mg  Mg86  1  0.47517700  0.53631400  0.63861100  1
  Mg  Mg87  1  0.98850900  0.53631400  0.63861100  1
  Mg  Mg88  1  0.54851000  0.38964800  0.52083300  1
  Mg  Mg89  1  0.06184200  0.38964800  0.52083300  1
  Mg  Mg90  1  0.25847400  0.48305200  0.50362800  1
  Mg  Mg91  1  0.60609500  0.27447900  0.57315200  1
  Mg  Mg92  1  0.12755700  0.74488600  0.56908700  1
  Mg  Mg93  1  0.62133000  0.27067000  0.74108800  1
  Mg  Mg94  1  0.25466500  0.49066900  0.66775500  1
  Mg  Mg95  1  0.10799900  0.27067000  0.74108800  1
  Mg  Mg96  1  0.83371200  0.84590800  0.71600900  1
  Mg  Mg97  1  0.44873000  0.10254000  0.65627800  1
  Mg  Mg98  1  0.73444400  0.53111200  0.68008800  1
  Mg  Mg99  1  0.64777800  0.70444400  0.72342100  1
  Mg  Mg100  1  0.36206400  0.27587300  0.69961100  1
  Mg  Mg101  1  0.54825400  0.90349200  0.68985000  1
  Mg  Mg102  1  0.04825400  0.40349200  0.68985000  1
  Mg  Mg103  1  0.54825400  0.40349200  0.68985000  1
  Mg  Mg104  1  0.40539700  0.68920700  0.76127800  1
  Mg  Mg105  1  0.90539700  0.68920700  0.76127800  1
  Mg  Mg106  1  0.40539700  0.18920700  0.76127800  1
  Mg  Mg107  1  0.62371800  0.06113200  0.72063600  1
  Mg  Mg108  1  0.99134100  0.61986300  0.70105900  1
  Mg  Mg109  1  0.60920300  0.48761900  0.74514100  1
  Mg  Mg110  1  0.20159100  0.89079400  0.77741600  1
  Mg  Mg111  1  0.10516700  0.18712200  0.67864000  1
  Mg  Mg112  1  0.78135800  0.74585200  0.65906300  1
  Mg  Mg113  1  0.90317800  0.48761900  0.74514100  1
  Mg  Mg114  1  0.47278900  0.74585200  0.65906300  1
  Mg  Mg115  1  0.38879600  0.61986300  0.70105900  1
  Mg  Mg116  1  0.70771100  0.18712200  0.67864000  1
  Mg  Mg117  1  0.31515000  0.06113200  0.72063600  1
  Mg  Mg118  1  0.90761500  0.89079400  0.77741600  1
  Mg  Mg119  1  0.12374800  0.75250400  0.73321400  1
  Mg  Mg120  1  0.18946300  0.10774300  0.78146800  1
  Mg  Mg121  1  0.70279400  0.10774300  0.78146800  1
  Mg  Mg122  1  0.26279600  0.96107700  0.66369000  1
  Mg  Mg123  1  0.77612700  0.96107700  0.66369000  1
  Mg  Mg124  1  0.97276000  0.05448000  0.64648500  1
  Mg  Mg125  1  0.32038000  0.84590800  0.71600900  1
  Mg  Mg126  1  0.84184200  0.31631500  0.71194400  1
