# generated using pymatgen
data_Mg13Ga14
_symmetry_space_group_name_H-M   'P 1'
_cell_length_a   5.53544100
_cell_length_b   8.03816804
_cell_length_c   45.27987700
_cell_angle_alpha   90.00000000
_cell_angle_beta   90.00000000
_cell_angle_gamma   110.14043569
_symmetry_Int_Tables_number   1
_chemical_formula_structural   Mg13Ga14
_chemical_formula_sum   'Mg26 Ga28'
_cell_volume   1891.52220127
_cell_formula_units_Z   2
loop_
 _symmetry_equiv_pos_site_id
 _symmetry_equiv_pos_as_xyz
  1  'x, y, z'
loop_
 _atom_site_type_symbol
 _atom_site_label
 _atom_site_symmetry_multiplicity
 _atom_site_fract_x
 _atom_site_fract_y
 _atom_site_fract_z
 _atom_site_occupancy
  Mg  Mg0  1  0.16750700  0.87073400  0.66718200  1
  Mg  Mg1  1  0.77594200  0.01616400  0.71122300  1
  Mg  Mg2  1  0.33535100  0.13498100  0.80961000  1
  Mg  Mg3  1  0.37234600  0.28041100  0.68698500  1
  Mg  Mg4  1  0.20322700  0.37073400  0.75051500  1
  Mg  Mg5  1  0.74022200  0.51616400  0.79455600  1
  Mg  Mg6  1  0.79963000  0.63498100  0.72627700  1
  Mg  Mg7  1  0.40806600  0.78041100  0.77031800  1
  Mg  Mg8  1  0.66750700  0.87073400  0.50051500  1
  Mg  Mg9  1  0.27594200  0.01616400  0.54455600  1
  Mg  Mg10  1  0.83535100  0.13498100  0.64294400  1
  Mg  Mg11  1  0.87234600  0.28041100  0.52031800  1
  Mg  Mg12  1  0.70322700  0.37073400  0.58384900  1
  Mg  Mg13  1  0.24022200  0.51616400  0.62789000  1
  Mg  Mg14  1  0.29963000  0.63498100  0.55961000  1
  Mg  Mg15  1  0.90806600  0.78041100  0.60365100  1
  Mg  Mg16  1  0.16750700  0.87073400  0.33384900  1
  Mg  Mg17  1  0.77594200  0.01616400  0.37789000  1
  Mg  Mg18  1  0.33535100  0.13498100  0.47627700  1
  Mg  Mg19  1  0.37234600  0.28041100  0.35365100  1
  Mg  Mg20  1  0.20322700  0.37073400  0.41718200  1
  Mg  Mg21  1  0.74022200  0.51616400  0.46122300  1
  Mg  Mg22  1  0.79963000  0.63498100  0.39294400  1
  Mg  Mg23  1  0.40806600  0.78041100  0.43698500  1
  Mg  Mg24  1  0.83535100  0.13498100  0.30961000  1
  Mg  Mg25  1  0.24022200  0.51616400  0.29455600  1
  Ga  Ga26  1  0.94646400  0.88131700  0.77570600  1
  Ga  Ga27  1  0.24772300  0.98383600  0.72804100  1
  Ga  Ga28  1  0.83946000  0.16730900  0.79279300  1
  Ga  Ga29  1  0.64071900  0.26982800  0.74512700  1
  Ga  Ga30  1  0.93485400  0.38131700  0.69237300  1
  Ga  Ga31  1  0.23611300  0.48383600  0.81137400  1
  Ga  Ga32  1  0.32785000  0.66730900  0.70945900  1
  Ga  Ga33  1  0.12910900  0.76982800  0.82846100  1
  Ga  Ga34  1  0.44646400  0.88131700  0.60903900  1
  Ga  Ga35  1  0.74772300  0.98383600  0.56137400  1
  Ga  Ga36  1  0.33946000  0.16730900  0.62612600  1
  Ga  Ga37  1  0.14071900  0.26982800  0.57846100  1
  Ga  Ga38  1  0.43485400  0.38131700  0.52570600  1
  Ga  Ga39  1  0.73611300  0.48383600  0.64470700  1
  Ga  Ga40  1  0.82785000  0.66730900  0.54279300  1
  Ga  Ga41  1  0.62910900  0.76982800  0.66179400  1
  Ga  Ga42  1  0.94646400  0.88131700  0.44237300  1
  Ga  Ga43  1  0.24772300  0.98383600  0.39470700  1
  Ga  Ga44  1  0.83946000  0.16730900  0.45945900  1
  Ga  Ga45  1  0.64071900  0.26982800  0.41179400  1
  Ga  Ga46  1  0.93485400  0.38131700  0.35903900  1
  Ga  Ga47  1  0.23611300  0.48383600  0.47804100  1
  Ga  Ga48  1  0.32785000  0.66730900  0.37612600  1
  Ga  Ga49  1  0.12910900  0.76982800  0.49512700  1
  Ga  Ga50  1  0.44646400  0.88131700  0.27570600  1
  Ga  Ga51  1  0.33946000  0.16730900  0.29279300  1
  Ga  Ga52  1  0.73611300  0.48383600  0.31137400  1
  Ga  Ga53  1  0.62910900  0.76982800  0.32846100  1
