# generated using pymatgen
data_Y53Mg17
_symmetry_space_group_name_H-M   'P 1'
_cell_length_a   6.70208063
_cell_length_b   12.11301270
_cell_length_c   42.48269200
_cell_angle_alpha   90.00569977
_cell_angle_beta   92.24183417
_cell_angle_gamma   79.58374478
_symmetry_Int_Tables_number   1
_chemical_formula_structural   Y53Mg17
_chemical_formula_sum   'Y53 Mg17'
_cell_volume   3389.32864690
_cell_formula_units_Z   1
loop_
 _symmetry_equiv_pos_site_id
 _symmetry_equiv_pos_as_xyz
  1  'x, y, z'
loop_
 _atom_site_type_symbol
 _atom_site_label
 _atom_site_symmetry_multiplicity
 _atom_site_fract_x
 _atom_site_fract_y
 _atom_site_fract_z
 _atom_site_occupancy
  Y  Y0  1  0.24658500  0.93664600  0.24107100  1
  Y  Y1  1  0.82484400  0.18230500  0.22150700  1
  Y  Y2  1  0.31118300  0.22670100  0.22492200  1
  Y  Y3  1  0.88944200  0.47236100  0.20535700  1
  Y  Y4  1  0.46770100  0.71802000  0.18579200  1
  Y  Y5  1  0.95404000  0.76241600  0.18920800  1
  Y  Y6  1  0.96087100  0.86521800  0.31250000  1
  Y  Y7  1  0.53912900  0.11087700  0.29293500  1
  Y  Y8  1  0.02546900  0.15527300  0.29635000  1
  Y  Y9  1  0.60372800  0.40093200  0.27678600  1
  Y  Y10  1  0.18198700  0.64659100  0.25722100  1
  Y  Y11  1  0.66832600  0.69098700  0.26063600  1
  Y  Y12  1  0.67515600  0.79378900  0.38392900  1
  Y  Y13  1  0.25341500  0.03944800  0.36436400  1
  Y  Y14  1  0.73975500  0.08384400  0.36777900  1
  Y  Y15  1  0.31801300  0.32950300  0.34821400  1
  Y  Y16  1  0.89627200  0.57516200  0.32865000  1
  Y  Y17  1  0.38261200  0.61955900  0.33206500  1
  Y  Y18  1  0.38944200  0.72236100  0.45535700  1
  Y  Y19  1  0.96770100  0.96802000  0.43579200  1
  Y  Y20  1  0.45404000  0.01241600  0.43920800  1
  Y  Y21  1  0.03229900  0.25807500  0.41964300  1
  Y  Y22  1  0.61055800  0.50373400  0.40007800  1
  Y  Y23  1  0.09689800  0.54813000  0.40349300  1
  Y  Y24  1  0.10372800  0.65093200  0.52678600  1
  Y  Y25  1  0.68198700  0.89659100  0.50722100  1
  Y  Y26  1  0.16832600  0.94098700  0.51063600  1
  Y  Y27  1  0.74658500  0.18664600  0.49107100  1
  Y  Y28  1  0.32484400  0.43230500  0.47150700  1
  Y  Y29  1  0.81118300  0.47670100  0.47492200  1
  Y  Y30  1  0.81801300  0.57950300  0.59821400  1
  Y  Y31  1  0.39627200  0.82516200  0.57865000  1
  Y  Y32  1  0.88261200  0.86955900  0.58206500  1
  Y  Y33  1  0.46087100  0.11521800  0.56250000  1
  Y  Y34  1  0.03912900  0.36087700  0.54293500  1
  Y  Y35  1  0.52546900  0.40527300  0.54635000  1
  Y  Y36  1  0.53229900  0.50807500  0.66964300  1
  Y  Y37  1  0.11055800  0.75373400  0.65007800  1
  Y  Y38  1  0.59689800  0.79813000  0.65349300  1
  Y  Y39  1  0.17515600  0.04378900  0.63392900  1
  Y  Y40  1  0.75341500  0.28944800  0.61436400  1
  Y  Y41  1  0.23975500  0.33384400  0.61777900  1
  Y  Y42  1  0.24658500  0.43664600  0.74107100  1
  Y  Y43  1  0.82484400  0.68230500  0.72150700  1
  Y  Y44  1  0.31118300  0.72670100  0.72492200  1
  Y  Y45  1  0.88944200  0.97236100  0.70535700  1
  Y  Y46  1  0.46770100  0.21802000  0.68579200  1
  Y  Y47  1  0.95404000  0.26241600  0.68920800  1
  Y  Y48  1  0.53912900  0.61087700  0.79293500  1
  Y  Y49  1  0.02546900  0.65527300  0.79635000  1
  Y  Y50  1  0.60372800  0.90093200  0.77678600  1
  Y  Y51  1  0.18198700  0.14659100  0.75722100  1
  Y  Y52  1  0.66832600  0.19098700  0.76063600  1
  Mg  Mg53  1  0.74658500  0.93664600  0.24107100  1
  Mg  Mg54  1  0.38944200  0.47236100  0.20535700  1
  Mg  Mg55  1  0.46087100  0.86521800  0.31250000  1
  Mg  Mg56  1  0.10372800  0.40093200  0.27678600  1
  Mg  Mg57  1  0.17515600  0.79378900  0.38392900  1
  Mg  Mg58  1  0.81801300  0.32950300  0.34821400  1
  Mg  Mg59  1  0.88944200  0.72236100  0.45535700  1
  Mg  Mg60  1  0.53229900  0.25807500  0.41964300  1
  Mg  Mg61  1  0.60372800  0.65093200  0.52678600  1
  Mg  Mg62  1  0.24658500  0.18664600  0.49107100  1
  Mg  Mg63  1  0.31801300  0.57950300  0.59821400  1
  Mg  Mg64  1  0.96087100  0.11521800  0.56250000  1
  Mg  Mg65  1  0.03229900  0.50807500  0.66964300  1
  Mg  Mg66  1  0.67515600  0.04378900  0.63392900  1
  Mg  Mg67  1  0.74658500  0.43664600  0.74107100  1
  Mg  Mg68  1  0.38944200  0.97236100  0.70535700  1
  Mg  Mg69  1  0.10372800  0.90093200  0.77678600  1
