# generated using pymatgen
data_MgPt3
_symmetry_space_group_name_H-M   'P 1'
_cell_length_a   5.61272700
_cell_length_b   5.61272711
_cell_length_c   41.24495400
_cell_angle_alpha   90.00000000
_cell_angle_beta   90.00000000
_cell_angle_gamma   59.99999473
_symmetry_Int_Tables_number   1
_chemical_formula_structural   MgPt3
_chemical_formula_sum   'Mg11 Pt33'
_cell_volume   1125.25066473
_cell_formula_units_Z   11
loop_
 _symmetry_equiv_pos_site_id
 _symmetry_equiv_pos_as_xyz
  1  'x, y, z'
loop_
 _atom_site_type_symbol
 _atom_site_label
 _atom_site_symmetry_multiplicity
 _atom_site_fract_x
 _atom_site_fract_y
 _atom_site_fract_z
 _atom_site_occupancy
  Mg  Mg0  1  0.83333300  0.83333300  0.22222200  1
  Mg  Mg1  1  0.50000000  0.50000000  0.27777800  1
  Mg  Mg2  1  0.16666700  0.16666700  0.33333300  1
  Mg  Mg3  1  0.83333300  0.83333300  0.38888900  1
  Mg  Mg4  1  0.50000000  0.50000000  0.44444400  1
  Mg  Mg5  1  0.16666700  0.16666700  0.50000000  1
  Mg  Mg6  1  0.83333300  0.83333300  0.55555600  1
  Mg  Mg7  1  0.50000000  0.50000000  0.61111100  1
  Mg  Mg8  1  0.16666700  0.16666700  0.66666700  1
  Mg  Mg9  1  0.83333300  0.83333300  0.72222200  1
  Mg  Mg10  1  0.50000000  0.50000000  0.77777800  1
  Pt  Pt11  1  0.33333300  0.33333300  0.22222200  1
  Pt  Pt12  1  0.83333300  0.33333300  0.22222200  1
  Pt  Pt13  1  0.33333300  0.83333300  0.22222200  1
  Pt  Pt14  1  0.00000000  0.00000000  0.27777800  1
  Pt  Pt15  1  0.50000000  0.00000000  0.27777800  1
  Pt  Pt16  1  0.00000000  0.50000000  0.27777800  1
  Pt  Pt17  1  0.66666700  0.66666700  0.33333300  1
  Pt  Pt18  1  0.16666700  0.66666700  0.33333300  1
  Pt  Pt19  1  0.66666700  0.16666700  0.33333300  1
  Pt  Pt20  1  0.33333300  0.33333300  0.38888900  1
  Pt  Pt21  1  0.83333300  0.33333300  0.38888900  1
  Pt  Pt22  1  0.33333300  0.83333300  0.38888900  1
  Pt  Pt23  1  0.00000000  0.00000000  0.44444400  1
  Pt  Pt24  1  0.50000000  0.00000000  0.44444400  1
  Pt  Pt25  1  0.00000000  0.50000000  0.44444400  1
  Pt  Pt26  1  0.66666700  0.66666700  0.50000000  1
  Pt  Pt27  1  0.16666700  0.66666700  0.50000000  1
  Pt  Pt28  1  0.66666700  0.16666700  0.50000000  1
  Pt  Pt29  1  0.33333300  0.33333300  0.55555600  1
  Pt  Pt30  1  0.83333300  0.33333300  0.55555600  1
  Pt  Pt31  1  0.33333300  0.83333300  0.55555600  1
  Pt  Pt32  1  0.00000000  0.00000000  0.61111100  1
  Pt  Pt33  1  0.50000000  0.00000000  0.61111100  1
  Pt  Pt34  1  0.00000000  0.50000000  0.61111100  1
  Pt  Pt35  1  0.66666700  0.66666700  0.66666700  1
  Pt  Pt36  1  0.16666700  0.66666700  0.66666700  1
  Pt  Pt37  1  0.66666700  0.16666700  0.66666700  1
  Pt  Pt38  1  0.33333300  0.33333300  0.72222200  1
  Pt  Pt39  1  0.83333300  0.33333300  0.72222200  1
  Pt  Pt40  1  0.33333300  0.83333300  0.72222200  1
  Pt  Pt41  1  1.00000000  0.00000000  0.77777800  1
  Pt  Pt42  1  0.50000000  0.00000000  0.77777800  1
  Pt  Pt43  1  0.00000000  0.50000000  0.77777800  1
