# generated using pymatgen
data_La2Mg
_symmetry_space_group_name_H-M   'P 1'
_cell_length_a   4.00438100
_cell_length_b   6.73814556
_cell_length_c   45.93028300
_cell_angle_alpha   93.00181119
_cell_angle_beta   90.00000000
_cell_angle_gamma   107.28606081
_symmetry_Int_Tables_number   1
_chemical_formula_structural   La2Mg
_chemical_formula_sum   'La16 Mg8'
_cell_volume   1181.53944751
_cell_formula_units_Z   8
loop_
 _symmetry_equiv_pos_site_id
 _symmetry_equiv_pos_as_xyz
  1  'x, y, z'
loop_
 _atom_site_type_symbol
 _atom_site_label
 _atom_site_symmetry_multiplicity
 _atom_site_fract_x
 _atom_site_fract_y
 _atom_site_fract_z
 _atom_site_occupancy
  La  La0  1  0.05868700  0.11737500  0.26316500  1
  La  La1  1  0.69248200  0.38496300  0.32016900  1
  La  La2  1  0.14202100  0.28404100  0.17983100  1
  La  La3  1  0.77581500  0.55163000  0.23683500  1
  La  La4  1  0.89202100  0.78404100  0.42983100  1
  La  La5  1  0.52581500  0.05163000  0.48683500  1
  La  La6  1  0.97535400  0.95070800  0.34649800  1
  La  La7  1  0.60914800  0.21829600  0.40350200  1
  La  La8  1  0.72535400  0.45070800  0.59649800  1
  La  La9  1  0.35914800  0.71829600  0.65350200  1
  La  La10  1  0.80868700  0.61737500  0.51316500  1
  La  La11  1  0.44248200  0.88496300  0.57016900  1
  La  La12  1  0.55868700  0.11737500  0.76316500  1
  La  La13  1  0.19248200  0.38496300  0.82016900  1
  La  La14  1  0.64202100  0.28404100  0.67983100  1
  La  La15  1  0.27581500  0.55163000  0.73683500  1
  Mg  Mg16  1  0.45891800  0.91783600  0.20833300  1
  Mg  Mg17  1  0.37558400  0.75116900  0.29166700  1
  Mg  Mg18  1  0.29225100  0.58450200  0.37500000  1
  Mg  Mg19  1  0.20891800  0.41783600  0.45833300  1
  Mg  Mg20  1  0.12558400  0.25116900  0.54166700  1
  Mg  Mg21  1  0.04225100  0.08450200  0.62500000  1
  Mg  Mg22  1  0.95891800  0.91783600  0.70833300  1
  Mg  Mg23  1  0.87558400  0.75116900  0.79166700  1
