# generated using pymatgen
data_Ce14Mg109
_symmetry_space_group_name_H-M   'P 1'
_cell_length_a   10.33012900
_cell_length_b   14.43775486
_cell_length_c   46.86335100
_cell_angle_alpha   91.26380978
_cell_angle_beta   90.00000000
_cell_angle_gamma   69.03810193
_symmetry_Int_Tables_number   1
_chemical_formula_structural   Ce14Mg109
_chemical_formula_sum   'Ce14 Mg109'
_cell_volume   6524.99326643
_cell_formula_units_Z   1
loop_
 _symmetry_equiv_pos_site_id
 _symmetry_equiv_pos_as_xyz
  1  'x, y, z'
loop_
 _atom_site_type_symbol
 _atom_site_label
 _atom_site_symmetry_multiplicity
 _atom_site_fract_x
 _atom_site_fract_y
 _atom_site_fract_z
 _atom_site_occupancy
  Ce  Ce0  1  0.39312700  0.21374700  0.35213000  1
  Ce  Ce1  1  0.10741200  0.78517500  0.32832100  1
  Ce  Ce2  1  0.53598400  0.92803200  0.44736800  1
  Ce  Ce3  1  0.67884100  0.64231800  0.37594000  1
  Ce  Ce4  1  0.10741200  0.78517500  0.49498700  1
  Ce  Ce5  1  0.82169800  0.35660400  0.47117800  1
  Ce  Ce6  1  0.25027000  0.49946100  0.59022600  1
  Ce  Ce7  1  0.39312700  0.21374700  0.51879700  1
  Ce  Ce8  1  0.82169800  0.35660400  0.63784500  1
  Ce  Ce9  1  0.53598400  0.92803200  0.61403500  1
  Ce  Ce10  1  0.96455500  0.07089000  0.73308300  1
  Ce  Ce11  1  0.10741200  0.78517500  0.66165400  1
  Ce  Ce12  1  0.53598400  0.92803200  0.78070200  1
  Ce  Ce13  1  0.25027000  0.49946100  0.75689200  1
  Mg  Mg14  1  0.25027000  0.49946100  0.34022600  1
  Mg  Mg15  1  0.74888700  0.79714200  0.32433200  1
  Mg  Mg16  1  0.04656900  0.20178000  0.35611900  1
  Mg  Mg17  1  0.45397000  0.79714200  0.32433200  1
  Mg  Mg18  1  0.25027000  0.99946100  0.34022600  1
  Mg  Mg19  1  0.75165200  0.20178000  0.35611900  1
  Mg  Mg20  1  0.75027000  0.99946100  0.34022600  1
  Mg  Mg21  1  0.96455500  0.07089000  0.48308300  1
  Mg  Mg22  1  0.60741200  0.28517500  0.41165400  1
  Mg  Mg23  1  0.03452900  0.41760100  0.36031600  1
  Mg  Mg24  1  0.39267500  0.72799000  0.43791300  1
  Mg  Mg25  1  0.81362400  0.37275200  0.38965800  1
  Mg  Mg26  1  0.46317300  0.36857100  0.46718900  1
  Mg  Mg27  1  0.20675200  0.58649600  0.44531800  1
  Mg  Mg28  1  0.92103800  0.15792500  0.42150800  1
  Mg  Mg29  1  0.82214900  0.84236100  0.38539600  1
  Mg  Mg30  1  0.55193200  0.50171000  0.42280900  1
  Mg  Mg31  1  0.76085400  0.77320800  0.49897600  1
  Mg  Mg32  1  0.87933500  0.72799000  0.43791300  1
  Mg  Mg33  1  0.87354800  0.94224800  0.44263000  1
  Mg  Mg34  1  0.16825600  0.36857100  0.46718900  1
  Mg  Mg35  1  0.54787000  0.41760100  0.36031600  1
  Mg  Mg36  1  0.40120100  0.19759800  0.43365000  1
  Mg  Mg37  1  0.68310400  0.63379300  0.45491800  1
  Mg  Mg38  1  0.53172100  0.93655800  0.36839000  1
  Mg  Mg39  1  0.29378700  0.41242600  0.40180000  1
  Mg  Mg40  1  0.66695500  0.15274900  0.46299300  1
  Mg  Mg41  1  0.96455500  0.57089000  0.48308300  1
  Mg  Mg42  1  0.18420400  0.94224800  0.44263000  1
  Mg  Mg43  1  0.46593700  0.77320800  0.49897600  1
  Mg  Mg44  1  0.00807300  0.98385400  0.37799100  1
  Mg  Mg45  1  0.18029600  0.15274900  0.46299300  1
  Mg  Mg46  1  0.26846600  0.06864100  0.40049900  1
  Mg  Mg47  1  0.03062000  0.62810300  0.38067800  1
  Mg  Mg48  1  0.33549000  0.84236100  0.38539600  1
  Mg  Mg49  1  0.66289300  0.06864100  0.40049900  1
  Mg  Mg50  1  0.46455500  0.57089000  0.48308300  1
  Mg  Mg51  1  0.94635800  0.50171000  0.42280900  1
  Mg  Mg52  1  0.34127700  0.62810300  0.38067800  1
  Mg  Mg53  1  0.10741200  0.28517500  0.41165400  1
  Mg  Mg54  1  0.10741200  0.78517500  0.41165400  1
  Mg  Mg55  1  0.67884100  0.64231800  0.62594000  1
  Mg  Mg56  1  0.32169800  0.85660400  0.55451100  1
  Mg  Mg57  1  0.74881500  0.98903000  0.50317300  1
  Mg  Mg58  1  0.10696100  0.29941800  0.58077000  1
  Mg  Mg59  1  0.52790900  0.94418100  0.53251500  1
  Mg  Mg60  1  0.17745900  0.93999900  0.61004600  1
  Mg  Mg61  1  0.92103800  0.15792500  0.58817500  1
  Mg  Mg62  1  0.63532300  0.72935300  0.56436500  1
  Mg  Mg63  1  0.53643500  0.41379000  0.52825300  1
  Mg  Mg64  1  0.26621800  0.07313800  0.56566700  1
  Mg  Mg65  1  0.47514000  0.34463700  0.64183400  1
  Mg  Mg66  1  0.59362100  0.29941800  0.58077000  1
  Mg  Mg67  1  0.58783300  0.51367700  0.58548700  1
  Mg  Mg68  1  0.88254200  0.93999900  0.61004600  1
  Mg  Mg69  1  0.26215500  0.98903000  0.50317300  1
  Mg  Mg70  1  0.11548700  0.76902700  0.57650700  1
  Mg  Mg71  1  0.39738900  0.20522100  0.59777600  1
  Mg  Mg72  1  0.24600700  0.50798600  0.51124700  1
  Mg  Mg73  1  0.00807300  0.98385400  0.54465700  1
  Mg  Mg74  1  0.38124100  0.72417800  0.60585000  1
  Mg  Mg75  1  0.67884100  0.14231800  0.62594000  1
  Mg  Mg76  1  0.89849000  0.51367700  0.58548700  1
  Mg  Mg77  1  0.18022300  0.34463700  0.64183400  1
  Mg  Mg78  1  0.72235800  0.55528300  0.52084800  1
  Mg  Mg79  1  0.89458100  0.72417800  0.60585000  1
  Mg  Mg80  1  0.98275200  0.64007000  0.54335600  1
  Mg  Mg81  1  0.74490600  0.19953100  0.52353600  1
  Mg  Mg82  1  0.04977500  0.41379000  0.52825300  1
  Mg  Mg83  1  0.37717800  0.64007000  0.54335600  1
  Mg  Mg84  1  0.17884100  0.14231800  0.62594000  1
  Mg  Mg85  1  0.66064400  0.07313800  0.56566700  1
  Mg  Mg86  1  0.05556300  0.19953100  0.52353600  1
  Mg  Mg87  1  0.82169800  0.85660400  0.55451100  1
  Mg  Mg88  1  0.82169800  0.35660400  0.55451100  1
  Mg  Mg89  1  0.39312700  0.21374700  0.76879700  1
  Mg  Mg90  1  0.03598400  0.42803200  0.69736800  1
  Mg  Mg91  1  0.46310100  0.56045800  0.64603000  1
  Mg  Mg92  1  0.82124700  0.87084700  0.72362700  1
  Mg  Mg93  1  0.24219500  0.51561000  0.67537300  1
  Mg  Mg94  1  0.89174400  0.51142800  0.75290300  1
  Mg  Mg95  1  0.63532300  0.72935300  0.73103200  1
  Mg  Mg96  1  0.34960900  0.30078200  0.70722200  1
  Mg  Mg97  1  0.25072100  0.98521800  0.67111000  1
  Mg  Mg98  1  0.98050400  0.64456700  0.70852400  1
  Mg  Mg99  1  0.18942600  0.91606500  0.78469100  1
  Mg  Mg100  1  0.30790600  0.87084700  0.72362700  1
  Mg  Mg101  1  0.30211900  0.08510500  0.72834400  1
  Mg  Mg102  1  0.59682700  0.51142800  0.75290300  1
  Mg  Mg103  1  0.97644100  0.56045800  0.64603000  1
  Mg  Mg104  1  0.82977200  0.34045500  0.71936400  1
  Mg  Mg105  1  0.11167500  0.77665000  0.74063300  1
  Mg  Mg106  1  0.96029200  0.07941500  0.65410400  1
  Mg  Mg107  1  0.72235800  0.55528300  0.68751400  1
  Mg  Mg108  1  0.09552700  0.29560700  0.74870700  1
  Mg  Mg109  1  0.39312700  0.71374700  0.76879700  1
  Mg  Mg110  1  0.61277600  0.08510500  0.72834400  1
  Mg  Mg111  1  0.89450900  0.91606500  0.78469100  1
  Mg  Mg112  1  0.43664400  0.12671200  0.66370500  1
  Mg  Mg113  1  0.60886700  0.29560700  0.74870700  1
  Mg  Mg114  1  0.69703800  0.21149800  0.68621300  1
  Mg  Mg115  1  0.45919200  0.77096000  0.66639300  1
  Mg  Mg116  1  0.76406100  0.98521800  0.67111000  1
  Mg  Mg117  1  0.09146400  0.21149800  0.68621300  1
  Mg  Mg118  1  0.89312700  0.71374700  0.76879700  1
  Mg  Mg119  1  0.37493000  0.64456700  0.70852400  1
  Mg  Mg120  1  0.76984900  0.77096000  0.66639300  1
  Mg  Mg121  1  0.53598400  0.42803200  0.69736800  1
  Mg  Mg122  1  0.53598400  0.92803200  0.69736800  1
