# generated using pymatgen
data_Tm7Mg3
_symmetry_space_group_name_H-M   'P 1'
_cell_length_a   3.55930500
_cell_length_b   5.42194500
_cell_length_c   51.71079800
_cell_angle_alpha   90.00000000
_cell_angle_beta   90.00000000
_cell_angle_gamma   90.00000000
_symmetry_Int_Tables_number   1
_chemical_formula_structural   Tm7Mg3
_chemical_formula_sum   'Tm14 Mg6'
_cell_volume   997.93338617
_cell_formula_units_Z   2
loop_
 _symmetry_equiv_pos_site_id
 _symmetry_equiv_pos_as_xyz
  1  'x, y, z'
loop_
 _atom_site_type_symbol
 _atom_site_label
 _atom_site_symmetry_multiplicity
 _atom_site_fract_x
 _atom_site_fract_y
 _atom_site_fract_z
 _atom_site_occupancy
  Tm  Tm0  1  0.00000000  0.75000000  0.47747500  1
  Tm  Tm1  1  0.50000000  0.75000000  0.20280200  1
  Tm  Tm2  1  0.50000000  0.25000000  0.24474700  1
  Tm  Tm3  1  0.00000000  0.25000000  0.18608700  1
  Tm  Tm4  1  0.50000000  0.75000000  0.31080900  1
  Tm  Tm5  1  0.00000000  0.75000000  0.36946900  1
  Tm  Tm6  1  0.00000000  0.25000000  0.41141400  1
  Tm  Tm7  1  0.50000000  0.25000000  0.35275300  1
  Tm  Tm8  1  0.50000000  0.75000000  0.53613600  1
  Tm  Tm9  1  0.50000000  0.25000000  0.57808000  1
  Tm  Tm10  1  0.00000000  0.25000000  0.51942000  1
  Tm  Tm11  1  0.50000000  0.75000000  0.64414200  1
  Tm  Tm12  1  0.00000000  0.75000000  0.70280200  1
  Tm  Tm13  1  0.50000000  0.25000000  0.68608700  1
  Mg  Mg14  1  0.00000000  0.75000000  0.25701100  1
  Mg  Mg15  1  0.50000000  0.25000000  0.46521100  1
  Mg  Mg16  1  0.50000000  0.75000000  0.42367800  1
  Mg  Mg17  1  0.00000000  0.25000000  0.29854500  1
  Mg  Mg18  1  0.00000000  0.75000000  0.59034400  1
  Mg  Mg19  1  0.00000000  0.25000000  0.63187800  1
