# generated using pymatgen
data_Ca2Mg
_symmetry_space_group_name_H-M   'P 1'
_cell_length_a   3.89843600
_cell_length_b   4.03063337
_cell_length_c   53.79620300
_cell_angle_alpha   89.71355071
_cell_angle_beta   90.00000000
_cell_angle_gamma   90.00000000
_symmetry_Int_Tables_number   1
_chemical_formula_structural   Ca2Mg
_chemical_formula_sum   'Ca8 Mg4'
_cell_volume   845.29811676
_cell_formula_units_Z   4
loop_
 _symmetry_equiv_pos_site_id
 _symmetry_equiv_pos_as_xyz
  1  'x, y, z'
loop_
 _atom_site_type_symbol
 _atom_site_label
 _atom_site_symmetry_multiplicity
 _atom_site_fract_x
 _atom_site_fract_y
 _atom_site_fract_z
 _atom_site_occupancy
  Ca  Ca0  1  0.50000000  0.75096200  0.65077300  1
  Ca  Ca1  1  0.00000000  0.24860500  0.59922700  1
  Ca  Ca2  1  0.00000000  0.25096200  0.52577300  1
  Ca  Ca3  1  0.50000000  0.74860500  0.72422700  1
  Ca  Ca4  1  0.50000000  0.75096200  0.40077300  1
  Ca  Ca5  1  1.00000000  0.24860500  0.34922700  1
  Ca  Ca6  1  1.00000000  0.25096200  0.27577300  1
  Ca  Ca7  1  0.50000000  0.74860500  0.47422700  1
  Mg  Mg8  1  0.50000000  0.74978400  0.56250000  1
  Mg  Mg9  1  0.00000000  0.24978400  0.68750000  1
  Mg  Mg10  1  0.50000000  0.74978400  0.31250000  1
  Mg  Mg11  1  0.00000000  0.24978400  0.43750000  1
