# generated using pymatgen
data_Mg13Pd21
_symmetry_space_group_name_H-M   'P 1'
_cell_length_a   4.30853900
_cell_length_b   5.51609600
_cell_length_c   53.49805600
_cell_angle_alpha   90.00000000
_cell_angle_beta   90.00000000
_cell_angle_gamma   90.00000000
_symmetry_Int_Tables_number   1
_chemical_formula_structural   Mg13Pd21
_chemical_formula_sum   'Mg13 Pd21'
_cell_volume   1271.45163707
_cell_formula_units_Z   1
loop_
 _symmetry_equiv_pos_site_id
 _symmetry_equiv_pos_as_xyz
  1  'x, y, z'
loop_
 _atom_site_type_symbol
 _atom_site_label
 _atom_site_symmetry_multiplicity
 _atom_site_fract_x
 _atom_site_fract_y
 _atom_site_fract_z
 _atom_site_occupancy
  Mg  Mg0  1  0.00000000  0.50000000  0.38750000  1
  Mg  Mg1  1  0.00000000  0.00000000  0.48750000  1
  Mg  Mg2  1  0.00000000  0.50000000  0.58750000  1
  Mg  Mg3  1  0.50000000  0.16115000  0.41499300  1
  Mg  Mg4  1  0.50000000  0.83885000  0.56000700  1
  Mg  Mg5  1  0.50000000  0.33885000  0.51499300  1
  Mg  Mg6  1  0.50000000  0.66115000  0.46000700  1
  Mg  Mg7  1  0.00000000  0.00000000  0.68750000  1
  Mg  Mg8  1  0.00000000  0.50000000  0.78750000  1
  Mg  Mg9  1  0.50000000  0.16115000  0.61499300  1
  Mg  Mg10  1  0.50000000  0.83885000  0.76000700  1
  Mg  Mg11  1  0.50000000  0.33885000  0.71499300  1
  Mg  Mg12  1  0.50000000  0.66115000  0.66000700  1
  Pd  Pd13  1  0.00000000  0.00000000  0.38750000  1
  Pd  Pd14  1  0.50000000  0.17470500  0.46527100  1
  Pd  Pd15  1  0.50000000  0.82529500  0.50972900  1
  Pd  Pd16  1  0.50000000  0.32529500  0.56527100  1
  Pd  Pd17  1  0.50000000  0.67470500  0.40972900  1
  Pd  Pd18  1  0.00000000  0.38856000  0.43626800  1
  Pd  Pd19  1  1.00000000  0.61144000  0.53873200  1
  Pd  Pd20  1  0.00000000  0.11144000  0.53626800  1
  Pd  Pd21  1  0.00000000  0.88856000  0.43873200  1
  Pd  Pd22  1  0.00000000  0.00000000  0.58750000  1
  Pd  Pd23  1  0.00000000  0.50000000  0.48750000  1
  Pd  Pd24  1  0.50000000  0.17470500  0.66527100  1
  Pd  Pd25  1  0.50000000  0.82529500  0.70972900  1
  Pd  Pd26  1  0.50000000  0.32529500  0.76527100  1
  Pd  Pd27  1  0.50000000  0.67470500  0.60972900  1
  Pd  Pd28  1  0.00000000  0.38856000  0.63626800  1
  Pd  Pd29  1  1.00000000  0.61144000  0.73873200  1
  Pd  Pd30  1  0.00000000  0.11144000  0.73626800  1
  Pd  Pd31  1  0.00000000  0.88856000  0.63873200  1
  Pd  Pd32  1  0.00000000  0.00000000  0.78750000  1
  Pd  Pd33  1  0.00000000  0.50000000  0.68750000  1
