# generated using pymatgen
data_Mg14Zn71
_symmetry_space_group_name_H-M   'P 1'
_cell_length_a   4.98183571
_cell_length_b   9.87228479
_cell_length_c   49.62169200
_cell_angle_alpha   87.16066620
_cell_angle_beta   87.12264785
_cell_angle_gamma   75.38550100
_symmetry_Int_Tables_number   1
_chemical_formula_structural   Mg14Zn71
_chemical_formula_sum   'Mg14 Zn71'
_cell_volume   2356.84330036
_cell_formula_units_Z   1
loop_
 _symmetry_equiv_pos_site_id
 _symmetry_equiv_pos_as_xyz
  1  'x, y, z'
loop_
 _atom_site_type_symbol
 _atom_site_label
 _atom_site_symmetry_multiplicity
 _atom_site_fract_x
 _atom_site_fract_y
 _atom_site_fract_z
 _atom_site_occupancy
  Mg  Mg0  1  0.69598300  0.79880700  0.80922800  1
  Mg  Mg1  1  0.21439000  0.80405800  0.76716100  1
  Mg  Mg2  1  0.36789000  0.59199500  0.67222600  1
  Mg  Mg3  1  0.37581700  0.51087000  0.73749600  1
  Mg  Mg4  1  0.52931600  0.29880700  0.64256100  1
  Mg  Mg5  1  0.04772400  0.30405800  0.60049500  1
  Mg  Mg6  1  0.20122300  0.09199500  0.50555900  1
  Mg  Mg7  1  0.20915000  0.01087000  0.57083000  1
  Mg  Mg8  1  0.36264900  0.79880700  0.47589400  1
  Mg  Mg9  1  0.88105700  0.80405800  0.43382800  1
  Mg  Mg10  1  0.03455600  0.59199500  0.33889200  1
  Mg  Mg11  1  0.04248300  0.51087000  0.40416300  1
  Mg  Mg12  1  0.19598300  0.29880700  0.30922800  1
  Mg  Mg13  1  0.71439000  0.30405800  0.26716100  1
  Zn  Zn14  1  0.45518700  0.30143200  0.78819400  1
  Zn  Zn15  1  0.95308100  0.27449600  0.81934200  1
  Zn  Zn16  1  0.63973700  0.03790300  0.68262300  1
  Zn  Zn17  1  0.79197800  0.66383600  0.75220700  1
  Zn  Zn18  1  0.11839500  0.93902900  0.82418200  1
  Zn  Zn19  1  0.74328500  0.30738100  0.70074800  1
  Zn  Zn20  1  0.82810100  0.06509600  0.78441300  1
  Zn  Zn21  1  0.95729200  0.32836900  0.75704600  1
  Zn  Zn22  1  0.25057000  0.66758700  0.83127400  1
  Zn  Zn23  1  0.58798300  0.53776900  0.79197600  1
  Zn  Zn24  1  0.32239000  0.06509600  0.78441300  1
  Zn  Zn25  1  0.08227200  0.53776900  0.79197600  1
  Zn  Zn26  1  0.49512000  0.79548400  0.70897400  1
  Zn  Zn27  1  0.10397000  0.06496200  0.72709900  1
  Zn  Zn28  1  0.24858600  0.30738100  0.70074800  1
  Zn  Zn29  1  0.00042100  0.79548400  0.70897400  1
  Zn  Zn30  1  0.87185300  0.55143200  0.70486100  1
  Zn  Zn31  1  0.52824800  0.20185700  0.74164700  1
  Zn  Zn32  1  0.21545900  0.90100800  0.66807500  1
  Zn  Zn33  1  0.65980400  0.93527800  0.74511500  1
  Zn  Zn34  1  0.28852000  0.80143200  0.62152800  1
  Zn  Zn35  1  0.78641400  0.77449600  0.65267600  1
  Zn  Zn36  1  0.47307000  0.53790300  0.51595600  1
  Zn  Zn37  1  0.62531200  0.16383600  0.58554100  1
  Zn  Zn38  1  0.95172800  0.43902900  0.65751500  1
  Zn  Zn39  1  0.57661900  0.80738100  0.53408100  1
  Zn  Zn40  1  0.66143500  0.56509600  0.61774600  1
  Zn  Zn41  1  0.79062600  0.82836900  0.59038000  1
  Zn  Zn42  1  0.08390300  0.16758700  0.66460700  1
  Zn  Zn43  1  0.42131700  0.03776900  0.62531000  1
  Zn  Zn44  1  0.15572300  0.56509600  0.61774600  1
  Zn  Zn45  1  0.91560500  0.03776900  0.62531000  1
  Zn  Zn46  1  0.32845300  0.29548400  0.54230800  1
  Zn  Zn47  1  0.93730300  0.56496200  0.56043300  1
  Zn  Zn48  1  0.08192000  0.80738100  0.53408100  1
  Zn  Zn49  1  0.83375500  0.29548400  0.54230800  1
  Zn  Zn50  1  0.70518700  0.05143200  0.53819400  1
  Zn  Zn51  1  0.36158100  0.70185700  0.57498000  1
  Zn  Zn52  1  0.04879200  0.40100800  0.50140900  1
  Zn  Zn53  1  0.49313700  0.43527800  0.57844800  1
  Zn  Zn54  1  0.12185300  0.30143200  0.45486100  1
  Zn  Zn55  1  0.61974700  0.27449600  0.48600900  1
  Zn  Zn56  1  0.30640300  0.03790300  0.34929000  1
  Zn  Zn57  1  0.45864500  0.66383600  0.41887400  1
  Zn  Zn58  1  0.78506100  0.93902900  0.49084800  1
  Zn  Zn59  1  0.40995200  0.30738100  0.36741500  1
  Zn  Zn60  1  0.49476800  0.06509600  0.45107900  1
  Zn  Zn61  1  0.62395900  0.32836900  0.42371300  1
  Zn  Zn62  1  0.91723600  0.66758700  0.49794000  1
  Zn  Zn63  1  0.25465000  0.53776900  0.45864300  1
  Zn  Zn64  1  0.98905600  0.06509600  0.45107900  1
  Zn  Zn65  1  0.74893800  0.53776900  0.45864300  1
  Zn  Zn66  1  0.16178700  0.79548400  0.37564100  1
  Zn  Zn67  1  0.77063600  0.06496200  0.39376600  1
  Zn  Zn68  1  0.91525300  0.30738100  0.36741500  1
  Zn  Zn69  1  0.66708800  0.79548400  0.37564100  1
  Zn  Zn70  1  0.53852000  0.55143200  0.37152800  1
  Zn  Zn71  1  0.19491400  0.20185700  0.40831400  1
  Zn  Zn72  1  0.88212500  0.90100800  0.33474200  1
  Zn  Zn73  1  0.32647000  0.93527800  0.41178200  1
  Zn  Zn74  1  0.95518700  0.80143200  0.28819400  1
  Zn  Zn75  1  0.45308100  0.77449600  0.31934200  1
  Zn  Zn76  1  0.29197800  0.16383600  0.25220700  1
  Zn  Zn77  1  0.61839500  0.43902900  0.32418200  1
  Zn  Zn78  1  0.32810100  0.56509600  0.28441300  1
  Zn  Zn79  1  0.45729200  0.82836900  0.25704600  1
  Zn  Zn80  1  0.75057000  0.16758700  0.33127400  1
  Zn  Zn81  1  0.08798300  0.03776900  0.29197600  1
  Zn  Zn82  1  0.82239000  0.56509600  0.28441300  1
  Zn  Zn83  1  0.58227200  0.03776900  0.29197600  1
  Zn  Zn84  1  0.15980400  0.43527800  0.24511500  1
