# generated using pymatgen
data_Mg35Ir54
_symmetry_space_group_name_H-M   'P 1'
_cell_length_a   5.24707500
_cell_length_b   19.59900374
_cell_length_c   48.70839900
_cell_angle_alpha   93.84872638
_cell_angle_beta   90.00000000
_cell_angle_gamma   90.00000000
_symmetry_Int_Tables_number   1
_chemical_formula_structural   Mg35Ir54
_chemical_formula_sum   'Mg70 Ir108'
_cell_volume   4997.75050797
_cell_formula_units_Z   2
loop_
 _symmetry_equiv_pos_site_id
 _symmetry_equiv_pos_as_xyz
  1  'x, y, z'
loop_
 _atom_site_type_symbol
 _atom_site_label
 _atom_site_symmetry_multiplicity
 _atom_site_fract_x
 _atom_site_fract_y
 _atom_site_fract_z
 _atom_site_occupancy
  Mg  Mg0  1  0.00000000  0.68530300  0.29978900  1
  Mg  Mg1  1  0.50000000  0.04992300  0.27354400  1
  Mg  Mg2  1  0.50000000  0.89233100  0.27062500  1
  Mg  Mg3  1  0.00000000  0.84289500  0.30270900  1
  Mg  Mg4  1  0.50000000  0.62371300  0.27173500  1
  Mg  Mg5  1  1.00000000  0.11151300  0.30159800  1
  Mg  Mg6  1  0.00000000  0.40683600  0.29575400  1
  Mg  Mg7  1  0.50000000  0.32839000  0.27757900  1
  Mg  Mg8  1  0.00000000  0.51154800  0.25830200  1
  Mg  Mg9  1  0.50000000  0.22367800  0.31503100  1
  Mg  Mg10  1  0.50000000  0.99017000  0.37908800  1
  Mg  Mg11  1  0.00000000  0.91172300  0.36091200  1
  Mg  Mg12  1  0.00000000  0.85197000  0.46645600  1
  Mg  Mg13  1  0.50000000  0.21659000  0.44021100  1
  Mg  Mg14  1  0.50000000  0.05899800  0.43729100  1
  Mg  Mg15  1  1.00000000  0.00956200  0.46937500  1
  Mg  Mg16  1  0.50000000  0.09488200  0.34163600  1
  Mg  Mg17  1  1.00000000  0.80701100  0.39836400  1
  Mg  Mg18  1  0.50000000  0.79038000  0.43840200  1
  Mg  Mg19  1  1.00000000  0.27817900  0.46826500  1
  Mg  Mg20  1  0.00000000  0.57350300  0.46242100  1
  Mg  Mg21  1  0.50000000  0.49505600  0.44424600  1
  Mg  Mg22  1  0.50000000  0.26863600  0.38312300  1
  Mg  Mg23  1  0.00000000  0.63325600  0.35687700  1
  Mg  Mg24  1  1.00000000  0.47566400  0.35395800  1
  Mg  Mg25  1  0.50000000  0.42622800  0.38604200  1
  Mg  Mg26  1  1.00000000  0.67821500  0.42496900  1
  Mg  Mg27  1  0.50000000  0.39034500  0.48169800  1
  Mg  Mg28  1  0.00000000  0.20704700  0.35506800  1
  Mg  Mg29  1  0.50000000  0.69484600  0.38493200  1
  Mg  Mg30  1  0.50000000  0.15683600  0.54575400  1
  Mg  Mg31  1  0.00000000  0.07839000  0.52757900  1
  Mg  Mg32  1  0.00000000  0.01863600  0.63312300  1
  Mg  Mg33  1  0.50000000  0.38325600  0.60687700  1
  Mg  Mg34  1  0.50000000  0.22566400  0.60395800  1
  Mg  Mg35  1  1.00000000  0.17622800  0.63604200  1
  Mg  Mg36  1  0.50000000  0.26154800  0.50830200  1
  Mg  Mg37  1  0.00000000  0.97367800  0.56503100  1
  Mg  Mg38  1  0.50000000  0.95704700  0.60506800  1
  Mg  Mg39  1  0.00000000  0.44484600  0.63493200  1
  Mg  Mg40  1  0.00000000  0.74017000  0.62908800  1
  Mg  Mg41  1  0.50000000  0.66172300  0.61091200  1
  Mg  Mg42  1  0.50000000  0.43530300  0.54978900  1
  Mg  Mg43  1  1.00000000  0.79992300  0.52354400  1
  Mg  Mg44  1  0.00000000  0.64233100  0.52062500  1
  Mg  Mg45  1  0.50000000  0.59289500  0.55270900  1
  Mg  Mg46  1  0.00000000  0.84488200  0.59163600  1
  Mg  Mg47  1  0.50000000  0.55701100  0.64836400  1
  Mg  Mg48  1  1.00000000  0.37371300  0.52173500  1
  Mg  Mg49  1  0.50000000  0.86151300  0.55159800  1
  Mg  Mg50  1  0.50000000  0.32350300  0.71242100  1
  Mg  Mg51  1  1.00000000  0.24505600  0.69424600  1
  Mg  Mg52  1  1.00000000  0.18530300  0.79978900  1
  Mg  Mg53  1  0.50000000  0.54992300  0.77354400  1
  Mg  Mg54  1  0.50000000  0.39233100  0.77062500  1
  Mg  Mg55  1  1.00000000  0.34289500  0.80270900  1
  Mg  Mg56  1  0.50000000  0.42821500  0.67496900  1
  Mg  Mg57  1  0.00000000  0.14034500  0.73169800  1
  Mg  Mg58  1  0.50000000  0.12371300  0.77173500  1
  Mg  Mg59  1  1.00000000  0.61151300  0.80159800  1
  Mg  Mg60  1  1.00000000  0.90683600  0.79575400  1
  Mg  Mg61  1  0.50000000  0.82839000  0.77757900  1
  Mg  Mg62  1  0.50000000  0.60197000  0.71645600  1
  Mg  Mg63  1  0.00000000  0.96659000  0.69021100  1
  Mg  Mg64  1  0.00000000  0.80899800  0.68729100  1
  Mg  Mg65  1  0.50000000  0.75956200  0.71937500  1
  Mg  Mg66  1  0.00000000  0.01154800  0.75830200  1
  Mg  Mg67  1  0.50000000  0.72367800  0.81503100  1
  Mg  Mg68  1  0.00000000  0.54038000  0.68840200  1
  Mg  Mg69  1  0.50000000  0.02817900  0.71826500  1
  Ir  Ir70  1  0.75048700  0.75415400  0.25526400  1
  Ir  Ir71  1  0.74951300  0.98107200  0.31806900  1
  Ir  Ir72  1  0.25048700  0.98107200  0.31806900  1
  Ir  Ir73  1  0.24951300  0.75415400  0.25526400  1
  Ir  Ir74  1  0.00000000  0.07594600  0.24500000  1
  Ir  Ir75  1  0.50000000  0.87975300  0.33284300  1
  Ir  Ir76  1  0.00000000  0.85547300  0.24049000  1
  Ir  Ir77  1  0.50000000  0.76695100  0.30017600  1
  Ir  Ir78  1  0.00000000  0.96827500  0.27315700  1
  Ir  Ir79  1  0.50000000  0.47139900  0.27157400  1
  Ir  Ir80  1  0.00000000  0.26382800  0.30176000  1
  Ir  Ir81  1  0.50000000  0.65928000  0.32833300  1
  Ir  Ir82  1  0.00000000  0.29642000  0.24951000  1
  Ir  Ir83  1  0.50000000  0.43880600  0.32382300  1
  Ir  Ir84  1  0.23393800  0.54962500  0.30944600  1
  Ir  Ir85  1  0.26606200  0.18560200  0.26388800  1
  Ir  Ir86  1  0.73393800  0.18560200  0.26388800  1
  Ir  Ir87  1  0.76606200  0.54962500  0.30944600  1
  Ir  Ir88  1  1.00000000  0.05473200  0.35490700  1
  Ir  Ir89  1  0.50000000  0.84716100  0.38509300  1
  Ir  Ir90  1  0.75048700  0.92082100  0.42193100  1
  Ir  Ir91  1  0.74951300  0.14773900  0.48473600  1
  Ir  Ir92  1  0.25048700  0.14773900  0.48473600  1
  Ir  Ir93  1  0.24951300  0.92082100  0.42193100  1
  Ir  Ir94  1  1.00000000  0.24261300  0.41166700  1
  Ir  Ir95  1  0.50000000  0.04642000  0.49951000  1
  Ir  Ir96  1  0.00000000  0.02213900  0.40715700  1
  Ir  Ir97  1  0.50000000  0.93361800  0.46684300  1
  Ir  Ir98  1  0.00000000  0.13494200  0.43982400  1
  Ir  Ir99  1  0.73393800  0.13295800  0.39277900  1
  Ir  Ir100  1  0.76606200  0.76893500  0.34722100  1
  Ir  Ir101  1  0.23393800  0.76893500  0.34722100  1
  Ir  Ir102  1  0.26606200  0.13295800  0.39277900  1
  Ir  Ir103  1  0.50000000  0.63806500  0.43824000  1
  Ir  Ir104  1  0.00000000  0.43049400  0.46842600  1
  Ir  Ir105  1  0.25048700  0.33748700  0.33859700  1
  Ir  Ir106  1  0.24951300  0.56440500  0.40140300  1
  Ir  Ir107  1  0.75048700  0.56440500  0.40140300  1
  Ir  Ir108  1  0.74951300  0.33748700  0.33859700  1
  Ir  Ir109  1  0.50000000  0.82594600  0.49500000  1
  Ir  Ir110  1  0.00000000  0.46308700  0.41617700  1
  Ir  Ir111  1  0.50000000  0.60547300  0.49049000  1
  Ir  Ir112  1  0.00000000  0.35028400  0.38350900  1
  Ir  Ir113  1  0.50000000  0.55160900  0.35649100  1
  Ir  Ir114  1  0.23393800  0.71629100  0.47611200  1
  Ir  Ir115  1  0.26606200  0.35226800  0.43055400  1
  Ir  Ir116  1  0.73393800  0.35226800  0.43055400  1
  Ir  Ir117  1  0.76606200  0.71629100  0.47611200  1
  Ir  Ir118  1  0.00000000  0.22139900  0.52157400  1
  Ir  Ir119  1  0.50000000  0.01382800  0.55176000  1
  Ir  Ir120  1  0.75048700  0.08748700  0.58859700  1
  Ir  Ir121  1  0.74951300  0.31440500  0.65140300  1
  Ir  Ir122  1  0.25048700  0.31440500  0.65140300  1
  Ir  Ir123  1  0.24951300  0.08748700  0.58859700  1
  Ir  Ir124  1  0.00000000  0.40928000  0.57833300  1
  Ir  Ir125  1  0.50000000  0.21308700  0.66617700  1
  Ir  Ir126  1  0.00000000  0.18880600  0.57382300  1
  Ir  Ir127  1  0.50000000  0.10028400  0.63350900  1
  Ir  Ir128  1  0.00000000  0.30160900  0.60649100  1
  Ir  Ir129  1  0.73393800  0.29962500  0.55944600  1
  Ir  Ir130  1  0.76606200  0.93560200  0.51388800  1
  Ir  Ir131  1  0.23393800  0.93560200  0.51388800  1
  Ir  Ir132  1  0.26606200  0.29962500  0.55944600  1
  Ir  Ir133  1  0.50000000  0.80473200  0.60490700  1
  Ir  Ir134  1  0.00000000  0.59716100  0.63509300  1
  Ir  Ir135  1  0.25048700  0.50415400  0.50526400  1
  Ir  Ir136  1  0.24951300  0.73107200  0.56806900  1
  Ir  Ir137  1  0.75048700  0.73107200  0.56806900  1
  Ir  Ir138  1  0.74951300  0.50415400  0.50526400  1
  Ir  Ir139  1  0.50000000  0.99261300  0.66166700  1
  Ir  Ir140  1  1.00000000  0.62975300  0.58284300  1
  Ir  Ir141  1  0.50000000  0.77213900  0.65715700  1
  Ir  Ir142  1  0.00000000  0.51695100  0.55017600  1
  Ir  Ir143  1  0.50000000  0.71827500  0.52315700  1
  Ir  Ir144  1  0.23393800  0.88295800  0.64277900  1
  Ir  Ir145  1  0.26606200  0.51893500  0.59722100  1
  Ir  Ir146  1  0.73393800  0.51893500  0.59722100  1
  Ir  Ir147  1  0.76606200  0.88295800  0.64277900  1
  Ir  Ir148  1  1.00000000  0.38806500  0.68824000  1
  Ir  Ir149  1  0.50000000  0.18049400  0.71842600  1
  Ir  Ir150  1  0.75048700  0.25415400  0.75526400  1
  Ir  Ir151  1  0.74951300  0.48107200  0.81806900  1
  Ir  Ir152  1  0.25048700  0.48107200  0.81806900  1
  Ir  Ir153  1  0.24951300  0.25415400  0.75526400  1
  Ir  Ir154  1  1.00000000  0.57594600  0.74500000  1
  Ir  Ir155  1  0.50000000  0.37975300  0.83284300  1
  Ir  Ir156  1  0.00000000  0.35547300  0.74049000  1
  Ir  Ir157  1  0.50000000  0.26695100  0.80017600  1
  Ir  Ir158  1  0.00000000  0.46827500  0.77315700  1
  Ir  Ir159  1  0.73393800  0.46629100  0.72611200  1
  Ir  Ir160  1  0.76606200  0.10226800  0.68055400  1
  Ir  Ir161  1  0.23393800  0.10226800  0.68055400  1
  Ir  Ir162  1  0.26606200  0.46629100  0.72611200  1
  Ir  Ir163  1  0.50000000  0.97139900  0.77157400  1
  Ir  Ir164  1  1.00000000  0.76382800  0.80176000  1
  Ir  Ir165  1  0.25048700  0.67082100  0.67193100  1
  Ir  Ir166  1  0.24951300  0.89773900  0.73473600  1
  Ir  Ir167  1  0.75048700  0.89773900  0.73473600  1
  Ir  Ir168  1  0.74951300  0.67082100  0.67193100  1
  Ir  Ir169  1  0.50000000  0.15928000  0.82833300  1
  Ir  Ir170  1  0.00000000  0.79642000  0.74951000  1
  Ir  Ir171  1  0.50000000  0.93880600  0.82382300  1
  Ir  Ir172  1  1.00000000  0.68361800  0.71684300  1
  Ir  Ir173  1  0.50000000  0.88494200  0.68982400  1
  Ir  Ir174  1  0.23393800  0.04962500  0.80944600  1
  Ir  Ir175  1  0.26606200  0.68560200  0.76388800  1
  Ir  Ir176  1  0.73393800  0.68560200  0.76388800  1
  Ir  Ir177  1  0.76606200  0.04962500  0.80944600  1
