# generated using pymatgen
data_Ca19Mg7
_symmetry_space_group_name_H-M   'P 1'
_cell_length_a   5.27812800
_cell_length_b   7.46440000
_cell_length_c   44.78639800
_cell_angle_alpha   90.00000000
_cell_angle_beta   90.00000000
_cell_angle_gamma   90.00000000
_symmetry_Int_Tables_number   1
_chemical_formula_structural   Ca19Mg7
_chemical_formula_sum   'Ca19 Mg7'
_cell_volume   1764.49713482
_cell_formula_units_Z   1
loop_
 _symmetry_equiv_pos_site_id
 _symmetry_equiv_pos_as_xyz
  1  'x, y, z'
loop_
 _atom_site_type_symbol
 _atom_site_label
 _atom_site_symmetry_multiplicity
 _atom_site_fract_x
 _atom_site_fract_y
 _atom_site_fract_z
 _atom_site_occupancy
  Ca  Ca0  1  0.00000000  0.12500000  0.27083300  1
  Ca  Ca1  1  0.00000000  0.62500000  0.35416700  1
  Ca  Ca2  1  0.50000000  0.37500000  0.31250000  1
  Ca  Ca3  1  0.50000000  0.87500000  0.31250000  1
  Ca  Ca4  1  0.00000000  0.12500000  0.43750000  1
  Ca  Ca5  1  0.50000000  0.87500000  0.39583300  1
  Ca  Ca6  1  0.50000000  0.37500000  0.39583300  1
  Ca  Ca7  1  1.00000000  0.62500000  0.52083300  1
  Ca  Ca8  1  0.50000000  0.37500000  0.47916700  1
  Ca  Ca9  1  0.50000000  0.87500000  0.47916700  1
  Ca  Ca10  1  1.00000000  0.12500000  0.60416700  1
  Ca  Ca11  1  0.50000000  0.87500000  0.56250000  1
  Ca  Ca12  1  0.50000000  0.37500000  0.56250000  1
  Ca  Ca13  1  1.00000000  0.62500000  0.68750000  1
  Ca  Ca14  1  0.50000000  0.37500000  0.64583300  1
  Ca  Ca15  1  0.50000000  0.87500000  0.64583300  1
  Ca  Ca16  1  1.00000000  0.12500000  0.77083300  1
  Ca  Ca17  1  0.50000000  0.87500000  0.72916700  1
  Ca  Ca18  1  0.50000000  0.37500000  0.72916700  1
  Mg  Mg19  1  0.00000000  0.62500000  0.27083300  1
  Mg  Mg20  1  0.00000000  0.12500000  0.35416700  1
  Mg  Mg21  1  1.00000000  0.62500000  0.43750000  1
  Mg  Mg22  1  0.00000000  0.12500000  0.52083300  1
  Mg  Mg23  1  1.00000000  0.62500000  0.60416700  1
  Mg  Mg24  1  1.00000000  0.12500000  0.68750000  1
  Mg  Mg25  1  1.00000000  0.62500000  0.77083300  1
