# generated using pymatgen
data_MgGa3
_symmetry_space_group_name_H-M   'P 1'
_cell_length_a   5.95494000
_cell_length_b   5.95493972
_cell_length_c   43.75969400
_cell_angle_alpha   90.00000000
_cell_angle_beta   90.00000000
_cell_angle_gamma   59.99999847
_symmetry_Int_Tables_number   1
_chemical_formula_structural   MgGa3
_chemical_formula_sum   'Mg11 Ga33'
_cell_volume   1343.87743387
_cell_formula_units_Z   11
loop_
 _symmetry_equiv_pos_site_id
 _symmetry_equiv_pos_as_xyz
  1  'x, y, z'
loop_
 _atom_site_type_symbol
 _atom_site_label
 _atom_site_symmetry_multiplicity
 _atom_site_fract_x
 _atom_site_fract_y
 _atom_site_fract_z
 _atom_site_occupancy
  Mg  Mg0  1  0.83333300  0.83333300  0.22222200  1
  Mg  Mg1  1  0.50000000  0.50000000  0.27777800  1
  Mg  Mg2  1  0.16666700  0.16666700  0.33333300  1
  Mg  Mg3  1  0.83333300  0.83333300  0.38888900  1
  Mg  Mg4  1  0.50000000  0.50000000  0.44444400  1
  Mg  Mg5  1  0.16666700  0.16666700  0.50000000  1
  Mg  Mg6  1  0.83333300  0.83333300  0.55555600  1
  Mg  Mg7  1  0.50000000  0.50000000  0.61111100  1
  Mg  Mg8  1  0.16666700  0.16666700  0.66666700  1
  Mg  Mg9  1  0.83333300  0.83333300  0.72222200  1
  Mg  Mg10  1  0.50000000  0.50000000  0.77777800  1
  Ga  Ga11  1  0.33333300  0.83333300  0.22222200  1
  Ga  Ga12  1  0.83333300  0.33333300  0.22222200  1
  Ga  Ga13  1  0.33333300  0.33333300  0.22222200  1
  Ga  Ga14  1  0.00000000  0.50000000  0.27777800  1
  Ga  Ga15  1  0.50000000  0.00000000  0.27777800  1
  Ga  Ga16  1  0.00000000  0.00000000  0.27777800  1
  Ga  Ga17  1  0.66666700  0.16666700  0.33333300  1
  Ga  Ga18  1  0.16666700  0.66666700  0.33333300  1
  Ga  Ga19  1  0.66666700  0.66666700  0.33333300  1
  Ga  Ga20  1  0.33333300  0.83333300  0.38888900  1
  Ga  Ga21  1  0.83333300  0.33333300  0.38888900  1
  Ga  Ga22  1  0.33333300  0.33333300  0.38888900  1
  Ga  Ga23  1  1.00000000  0.50000000  0.44444400  1
  Ga  Ga24  1  0.50000000  1.00000000  0.44444400  1
  Ga  Ga25  1  0.00000000  1.00000000  0.44444400  1
  Ga  Ga26  1  0.66666700  0.16666700  0.50000000  1
  Ga  Ga27  1  0.16666700  0.66666700  0.50000000  1
  Ga  Ga28  1  0.66666700  0.66666700  0.50000000  1
  Ga  Ga29  1  0.33333300  0.83333300  0.55555600  1
  Ga  Ga30  1  0.83333300  0.33333300  0.55555600  1
  Ga  Ga31  1  0.33333300  0.33333300  0.55555600  1
  Ga  Ga32  1  0.00000000  0.50000000  0.61111100  1
  Ga  Ga33  1  0.50000000  1.00000000  0.61111100  1
  Ga  Ga34  1  1.00000000  1.00000000  0.61111100  1
  Ga  Ga35  1  0.66666700  0.16666700  0.66666700  1
  Ga  Ga36  1  0.16666700  0.66666700  0.66666700  1
  Ga  Ga37  1  0.66666700  0.66666700  0.66666700  1
  Ga  Ga38  1  0.33333300  0.83333300  0.72222200  1
  Ga  Ga39  1  0.83333300  0.33333300  0.72222200  1
  Ga  Ga40  1  0.33333300  0.33333300  0.72222200  1
  Ga  Ga41  1  1.00000000  0.50000000  0.77777800  1
  Ga  Ga42  1  0.50000000  1.00000000  0.77777800  1
  Ga  Ga43  1  1.00000000  1.00000000  0.77777800  1
