# generated using pymatgen
data_Mg2Hg
_symmetry_space_group_name_H-M   'P 1'
_cell_length_a   8.61312000
_cell_length_b   7.97718687
_cell_length_c   42.00342800
_cell_angle_alpha   89.00209837
_cell_angle_beta   90.00000000
_cell_angle_gamma   90.00000000
_symmetry_Int_Tables_number   1
_chemical_formula_structural   Mg2Hg
_chemical_formula_sum   'Mg52 Hg26'
_cell_volume   2885.55347167
_cell_formula_units_Z   26
loop_
 _symmetry_equiv_pos_site_id
 _symmetry_equiv_pos_as_xyz
  1  'x, y, z'
loop_
 _atom_site_type_symbol
 _atom_site_label
 _atom_site_symmetry_multiplicity
 _atom_site_fract_x
 _atom_site_fract_y
 _atom_site_fract_z
 _atom_site_occupancy
  Mg  Mg0  1  0.78854300  0.52074800  0.18478200  1
  Mg  Mg1  1  0.21145700  0.29743400  0.22430900  1
  Mg  Mg2  1  0.71145700  0.83893000  0.23023700  1
  Mg  Mg3  1  0.28854300  0.61561500  0.26976300  1
  Mg  Mg4  1  0.56198000  0.20522900  0.21113700  1
  Mg  Mg5  1  0.43802000  0.61295300  0.19795400  1
  Mg  Mg6  1  0.93802000  0.52341100  0.25659100  1
  Mg  Mg7  1  0.06198000  0.93113500  0.24340900  1
  Mg  Mg8  1  0.78854300  0.15711200  0.27569100  1
  Mg  Mg9  1  0.21145700  0.93379700  0.31521800  1
  Mg  Mg10  1  0.71145700  0.47529400  0.32114600  1
  Mg  Mg11  1  0.28854300  0.25197900  0.36067200  1
  Mg  Mg12  1  0.56198000  0.84159200  0.30204600  1
  Mg  Mg13  1  0.43802000  0.24931700  0.28886300  1
  Mg  Mg14  1  0.93802000  0.15977400  0.34750000  1
  Mg  Mg15  1  0.06198000  0.56749800  0.33431800  1
  Mg  Mg16  1  0.78854300  0.79347600  0.36660000  1
  Mg  Mg17  1  0.21145700  0.57016100  0.40612700  1
  Mg  Mg18  1  0.71145700  0.11165700  0.41205500  1
  Mg  Mg19  1  0.28854300  0.88834300  0.45158100  1
  Mg  Mg20  1  0.56198000  0.47795600  0.39295500  1
  Mg  Mg21  1  0.43802000  0.88568000  0.37977300  1
  Mg  Mg22  1  0.93802000  0.79613800  0.43840900  1
  Mg  Mg23  1  0.06198000  0.20386200  0.42522700  1
  Mg  Mg24  1  0.78854300  0.42983900  0.45750900  1
  Mg  Mg25  1  0.21145700  0.20652400  0.49703600  1
  Mg  Mg26  1  0.71145700  0.74802100  0.50296400  1
  Mg  Mg27  1  0.28854300  0.52470600  0.54249100  1
  Mg  Mg28  1  0.56198000  0.11432000  0.48386400  1
  Mg  Mg29  1  0.43802000  0.52204400  0.47068200  1
  Mg  Mg30  1  0.93802000  0.43250200  0.52931800  1
  Mg  Mg31  1  0.06198000  0.84022600  0.51613600  1
  Mg  Mg32  1  0.78854300  0.06620300  0.54841900  1
  Mg  Mg33  1  0.21145700  0.84288800  0.58794500  1
  Mg  Mg34  1  0.71145700  0.38438500  0.59387300  1
  Mg  Mg35  1  0.28854300  0.16107000  0.63340000  1
  Mg  Mg36  1  0.56198000  0.75068300  0.57477300  1
  Mg  Mg37  1  0.43802000  0.15840800  0.56159100  1
  Mg  Mg38  1  0.93802000  0.06886500  0.62022700  1
  Mg  Mg39  1  0.06198000  0.47658900  0.60704500  1
  Mg  Mg40  1  0.78854300  0.70256600  0.63932800  1
  Mg  Mg41  1  0.21145700  0.47925200  0.67885400  1
  Mg  Mg42  1  0.71145700  0.02074800  0.68478200  1
  Mg  Mg43  1  0.28854300  0.79743400  0.72430900  1
  Mg  Mg44  1  0.56198000  0.38704700  0.66568200  1
  Mg  Mg45  1  0.43802000  0.79477100  0.65250000  1
  Mg  Mg46  1  0.93802000  0.70522900  0.71113700  1
  Mg  Mg47  1  0.06198000  0.11295300  0.69795400  1
  Mg  Mg48  1  0.78854300  0.33893000  0.73023700  1
  Mg  Mg49  1  0.21145700  0.11561500  0.76976300  1
  Mg  Mg50  1  0.56198000  0.02341100  0.75659100  1
  Mg  Mg51  1  0.43802000  0.43113500  0.74340900  1
  Hg  Hg52  1  0.10846200  0.64016700  0.20184200  1
  Hg  Hg53  1  0.89153800  0.17801500  0.20724900  1
  Hg  Hg54  1  0.39153800  0.95834900  0.24729700  1
  Hg  Hg55  1  0.60846200  0.49619700  0.25270300  1
  Hg  Hg56  1  0.10846200  0.27653000  0.29275100  1
  Hg  Hg57  1  0.89153800  0.81437900  0.29815800  1
  Hg  Hg58  1  0.39153800  0.59471200  0.33820600  1
  Hg  Hg59  1  0.60846200  0.13256000  0.34361300  1
  Hg  Hg60  1  0.10846200  0.91289400  0.38366000  1
  Hg  Hg61  1  0.89153800  0.45074200  0.38906700  1
  Hg  Hg62  1  0.39153800  0.23107600  0.42911500  1
  Hg  Hg63  1  0.60846200  0.76892400  0.43452200  1
  Hg  Hg64  1  0.10846200  0.54925800  0.47456900  1
  Hg  Hg65  1  0.89153800  0.08710600  0.47997600  1
  Hg  Hg66  1  0.39153800  0.86744000  0.52002400  1
  Hg  Hg67  1  0.60846200  0.40528800  0.52543100  1
  Hg  Hg68  1  0.10846200  0.18562100  0.56547800  1
  Hg  Hg69  1  0.89153800  0.72347000  0.57088500  1
  Hg  Hg70  1  0.39153800  0.50380300  0.61093300  1
  Hg  Hg71  1  0.60846200  0.04165100  0.61634000  1
  Hg  Hg72  1  0.10846200  0.82198500  0.65638700  1
  Hg  Hg73  1  0.89153800  0.35983300  0.66179400  1
  Hg  Hg74  1  0.39153800  0.14016700  0.70184200  1
  Hg  Hg75  1  0.60846200  0.67801500  0.70724900  1
  Hg  Hg76  1  0.10846200  0.45834900  0.74729700  1
  Hg  Hg77  1  0.89153800  0.99619700  0.75270300  1
