# generated using pymatgen
data_Ho8Mg43
_symmetry_space_group_name_H-M   'P 1'
_cell_length_a   6.18220924
_cell_length_b   8.04692824
_cell_length_c   44.84354000
_cell_angle_alpha   93.92767554
_cell_angle_beta   90.90913069
_cell_angle_gamma   97.36801049
_symmetry_Int_Tables_number   1
_chemical_formula_structural   Ho8Mg43
_chemical_formula_sum   'Ho8 Mg43'
_cell_volume   2206.56521697
_cell_formula_units_Z   1
loop_
 _symmetry_equiv_pos_site_id
 _symmetry_equiv_pos_as_xyz
  1  'x, y, z'
loop_
 _atom_site_type_symbol
 _atom_site_label
 _atom_site_symmetry_multiplicity
 _atom_site_fract_x
 _atom_site_fract_y
 _atom_site_fract_z
 _atom_site_occupancy
  Ho  Ho0  1  0.94828500  0.64871400  0.75000000  1
  Ho  Ho1  1  0.14828500  0.84871400  0.68333300  1
  Ho  Ho2  1  0.34828500  0.04871400  0.61666700  1
  Ho  Ho3  1  0.54828500  0.24871400  0.55000000  1
  Ho  Ho4  1  0.74828500  0.44871400  0.48333300  1
  Ho  Ho5  1  0.94828500  0.64871400  0.41666700  1
  Ho  Ho6  1  0.14828500  0.84871400  0.35000000  1
  Ho  Ho7  1  0.34828500  0.04871400  0.28333300  1
  Mg  Mg8  1  0.49542700  0.72103900  0.78294200  1
  Mg  Mg9  1  0.28869700  0.99161500  0.75124800  1
  Mg  Mg10  1  0.84828500  0.04871400  0.78333300  1
  Mg  Mg11  1  0.60787400  0.30581300  0.74875200  1
  Mg  Mg12  1  0.20114300  0.37638900  0.78372400  1
  Mg  Mg13  1  0.69542700  0.92103900  0.71627600  1
  Mg  Mg14  1  0.48869700  0.19161500  0.68458200  1
  Mg  Mg15  1  0.04828500  0.24871400  0.71666700  1
  Mg  Mg16  1  0.80787400  0.50581300  0.68208500  1
  Mg  Mg17  1  0.40114300  0.57638900  0.71705800  1
  Mg  Mg18  1  0.89542700  0.12103900  0.64960900  1
  Mg  Mg19  1  0.68869700  0.39161500  0.61791500  1
  Mg  Mg20  1  0.24828500  0.44871400  0.65000000  1
  Mg  Mg21  1  0.00787400  0.70581300  0.61541800  1
  Mg  Mg22  1  0.60114300  0.77638900  0.65039100  1
  Mg  Mg23  1  0.09542700  0.32103900  0.58294200  1
  Mg  Mg24  1  0.88869700  0.59161500  0.55124800  1
  Mg  Mg25  1  0.44828500  0.64871400  0.58333300  1
  Mg  Mg26  1  0.20787400  0.90581300  0.54875200  1
  Mg  Mg27  1  0.80114300  0.97638900  0.58372400  1
  Mg  Mg28  1  0.29542700  0.52103900  0.51627600  1
  Mg  Mg29  1  0.08869700  0.79161500  0.48458200  1
  Mg  Mg30  1  0.64828500  0.84871400  0.51666700  1
  Mg  Mg31  1  0.40787400  0.10581300  0.48208500  1
  Mg  Mg32  1  0.00114300  0.17638900  0.51705800  1
  Mg  Mg33  1  0.49542700  0.72103900  0.44960900  1
  Mg  Mg34  1  0.28869700  0.99161500  0.41791500  1
  Mg  Mg35  1  0.84828500  0.04871400  0.45000000  1
  Mg  Mg36  1  0.60787400  0.30581300  0.41541800  1
  Mg  Mg37  1  0.20114300  0.37638900  0.45039100  1
  Mg  Mg38  1  0.69542700  0.92103900  0.38294200  1
  Mg  Mg39  1  0.48869700  0.19161500  0.35124800  1
  Mg  Mg40  1  0.04828500  0.24871400  0.38333300  1
  Mg  Mg41  1  0.80787400  0.50581300  0.34875200  1
  Mg  Mg42  1  0.40114300  0.57638900  0.38372400  1
  Mg  Mg43  1  0.89542700  0.12103900  0.31627600  1
  Mg  Mg44  1  0.68869700  0.39161500  0.28458200  1
  Mg  Mg45  1  0.24828500  0.44871400  0.31666700  1
  Mg  Mg46  1  0.00787400  0.70581300  0.28208500  1
  Mg  Mg47  1  0.60114300  0.77638900  0.31705800  1
  Mg  Mg48  1  0.09542700  0.32103900  0.24960900  1
  Mg  Mg49  1  0.44828500  0.64871400  0.25000000  1
  Mg  Mg50  1  0.80114300  0.97638900  0.25039100  1
