# generated using pymatgen
data_Mg60Ir89
_symmetry_space_group_name_H-M   'P 1'
_cell_length_a   10.02721118
_cell_length_b   18.72038941
_cell_length_c   44.79036200
_cell_angle_alpha   94.03613252
_cell_angle_beta   86.64075209
_cell_angle_gamma   96.01571897
_symmetry_Int_Tables_number   1
_chemical_formula_structural   Mg60Ir89
_chemical_formula_sum   'Mg120 Ir178'
_cell_volume   8329.58426924
_cell_formula_units_Z   2
loop_
 _symmetry_equiv_pos_site_id
 _symmetry_equiv_pos_as_xyz
  1  'x, y, z'
loop_
 _atom_site_type_symbol
 _atom_site_label
 _atom_site_symmetry_multiplicity
 _atom_site_fract_x
 _atom_site_fract_y
 _atom_site_fract_z
 _atom_site_occupancy
  Mg  Mg0  1  0.97502600  0.78013600  0.23546600  1
  Mg  Mg1  1  0.70649900  0.71986400  0.26853400  1
  Mg  Mg2  1  0.33407600  0.55456700  0.21533000  1
  Mg  Mg3  1  0.34745000  0.94543300  0.28867000  1
  Mg  Mg4  1  0.22691900  0.79076000  0.27145100  1
  Mg  Mg5  1  0.45460700  0.70924000  0.23254900  1
  Mg  Mg6  1  0.91724200  0.92230000  0.22721100  1
  Mg  Mg7  1  0.76428400  0.57770000  0.27678900  1
  Mg  Mg8  1  0.04277200  0.52103200  0.24514400  1
  Mg  Mg9  1  0.63875300  0.97896800  0.25885600  1
  Mg  Mg10  1  0.82502600  0.28013600  0.28546600  1
  Mg  Mg11  1  0.85649900  0.21986400  0.21853400  1
  Mg  Mg12  1  0.18407600  0.05456700  0.26533000  1
  Mg  Mg13  1  0.49745000  0.44543300  0.23867000  1
  Mg  Mg14  1  0.37691900  0.29076000  0.22145100  1
  Mg  Mg15  1  0.30460700  0.20924000  0.28254900  1
  Mg  Mg16  1  0.76724200  0.42230000  0.27721100  1
  Mg  Mg17  1  0.91428400  0.07770000  0.22678900  1
  Mg  Mg18  1  0.89277200  0.02103200  0.29514400  1
  Mg  Mg19  1  0.78875300  0.47896800  0.20885600  1
  Mg  Mg20  1  0.67502600  0.78013600  0.33546600  1
  Mg  Mg21  1  0.40649900  0.71986400  0.36853400  1
  Mg  Mg22  1  0.03407600  0.55456700  0.31533000  1
  Mg  Mg23  1  0.04745000  0.94543300  0.38867000  1
  Mg  Mg24  1  0.92691900  0.79076000  0.37145100  1
  Mg  Mg25  1  0.15460700  0.70924000  0.33254900  1
  Mg  Mg26  1  0.61724200  0.92230000  0.32721100  1
  Mg  Mg27  1  0.46428400  0.57770000  0.37678900  1
  Mg  Mg28  1  0.74277200  0.52103200  0.34514400  1
  Mg  Mg29  1  0.33875300  0.97896800  0.35885600  1
  Mg  Mg30  1  0.52502600  0.28013600  0.38546600  1
  Mg  Mg31  1  0.55649900  0.21986400  0.31853400  1
  Mg  Mg32  1  0.88407600  0.05456700  0.36533000  1
  Mg  Mg33  1  0.19745000  0.44543300  0.33867000  1
  Mg  Mg34  1  0.07691900  0.29076000  0.32145100  1
  Mg  Mg35  1  0.00460700  0.20924000  0.38254900  1
  Mg  Mg36  1  0.46724200  0.42230000  0.37721100  1
  Mg  Mg37  1  0.61428400  0.07770000  0.32678900  1
  Mg  Mg38  1  0.59277200  0.02103200  0.39514400  1
  Mg  Mg39  1  0.48875300  0.47896800  0.30885600  1
  Mg  Mg40  1  0.37502600  0.78013600  0.43546600  1
  Mg  Mg41  1  0.10649900  0.71986400  0.46853400  1
  Mg  Mg42  1  0.73407600  0.55456700  0.41533000  1
  Mg  Mg43  1  0.74745000  0.94543300  0.48867000  1
  Mg  Mg44  1  0.62691900  0.79076000  0.47145100  1
  Mg  Mg45  1  0.85460700  0.70924000  0.43254900  1
  Mg  Mg46  1  0.31724200  0.92230000  0.42721100  1
  Mg  Mg47  1  0.16428400  0.57770000  0.47678900  1
  Mg  Mg48  1  0.44277200  0.52103200  0.44514400  1
  Mg  Mg49  1  0.03875300  0.97896800  0.45885600  1
  Mg  Mg50  1  0.22502600  0.28013600  0.48546600  1
  Mg  Mg51  1  0.25649900  0.21986400  0.41853400  1
  Mg  Mg52  1  0.58407600  0.05456700  0.46533000  1
  Mg  Mg53  1  0.89745000  0.44543300  0.43867000  1
  Mg  Mg54  1  0.77691900  0.29076000  0.42145100  1
  Mg  Mg55  1  0.70460700  0.20924000  0.48254900  1
  Mg  Mg56  1  0.16724200  0.42230000  0.47721100  1
  Mg  Mg57  1  0.31428400  0.07770000  0.42678900  1
  Mg  Mg58  1  0.29277200  0.02103200  0.49514400  1
  Mg  Mg59  1  0.18875300  0.47896800  0.40885600  1
  Mg  Mg60  1  0.07502600  0.78013600  0.53546600  1
  Mg  Mg61  1  0.80649900  0.71986400  0.56853400  1
  Mg  Mg62  1  0.43407600  0.55456700  0.51533000  1
  Mg  Mg63  1  0.44745000  0.94543300  0.58867000  1
  Mg  Mg64  1  0.32691900  0.79076000  0.57145100  1
  Mg  Mg65  1  0.55460700  0.70924000  0.53254900  1
  Mg  Mg66  1  0.01724200  0.92230000  0.52721100  1
  Mg  Mg67  1  0.86428400  0.57770000  0.57678900  1
  Mg  Mg68  1  0.14277200  0.52103200  0.54514400  1
  Mg  Mg69  1  0.73875300  0.97896800  0.55885600  1
  Mg  Mg70  1  0.92502600  0.28013600  0.58546600  1
  Mg  Mg71  1  0.95649900  0.21986400  0.51853400  1
  Mg  Mg72  1  0.28407600  0.05456700  0.56533000  1
  Mg  Mg73  1  0.59745000  0.44543300  0.53867000  1
  Mg  Mg74  1  0.47691900  0.29076000  0.52145100  1
  Mg  Mg75  1  0.40460700  0.20924000  0.58254900  1
  Mg  Mg76  1  0.86724200  0.42230000  0.57721100  1
  Mg  Mg77  1  0.01428400  0.07770000  0.52678900  1
  Mg  Mg78  1  0.99277200  0.02103200  0.59514400  1
  Mg  Mg79  1  0.88875300  0.47896800  0.50885600  1
  Mg  Mg80  1  0.77502600  0.78013600  0.63546600  1
  Mg  Mg81  1  0.50649900  0.71986400  0.66853400  1
  Mg  Mg82  1  0.13407600  0.55456700  0.61533000  1
  Mg  Mg83  1  0.14745000  0.94543300  0.68867000  1
  Mg  Mg84  1  0.02691900  0.79076000  0.67145100  1
  Mg  Mg85  1  0.25460700  0.70924000  0.63254900  1
  Mg  Mg86  1  0.71724200  0.92230000  0.62721100  1
  Mg  Mg87  1  0.56428400  0.57770000  0.67678900  1
  Mg  Mg88  1  0.84277200  0.52103200  0.64514400  1
  Mg  Mg89  1  0.43875300  0.97896800  0.65885600  1
  Mg  Mg90  1  0.62502600  0.28013600  0.68546600  1
  Mg  Mg91  1  0.65649900  0.21986400  0.61853400  1
  Mg  Mg92  1  0.98407600  0.05456700  0.66533000  1
  Mg  Mg93  1  0.29745000  0.44543300  0.63867000  1
  Mg  Mg94  1  0.17691900  0.29076000  0.62145100  1
  Mg  Mg95  1  0.10460700  0.20924000  0.68254900  1
  Mg  Mg96  1  0.56724200  0.42230000  0.67721100  1
  Mg  Mg97  1  0.71428400  0.07770000  0.62678900  1
  Mg  Mg98  1  0.69277200  0.02103200  0.69514400  1
  Mg  Mg99  1  0.58875300  0.47896800  0.60885600  1
  Mg  Mg100  1  0.47502600  0.78013600  0.73546600  1
  Mg  Mg101  1  0.20649900  0.71986400  0.76853400  1
  Mg  Mg102  1  0.83407600  0.55456700  0.71533000  1
  Mg  Mg103  1  0.84745000  0.94543300  0.78867000  1
  Mg  Mg104  1  0.72691900  0.79076000  0.77145100  1
  Mg  Mg105  1  0.95460700  0.70924000  0.73254900  1
  Mg  Mg106  1  0.41724200  0.92230000  0.72721100  1
  Mg  Mg107  1  0.26428400  0.57770000  0.77678900  1
  Mg  Mg108  1  0.54277200  0.52103200  0.74514400  1
  Mg  Mg109  1  0.13875300  0.97896800  0.75885600  1
  Mg  Mg110  1  0.32502600  0.28013600  0.78546600  1
  Mg  Mg111  1  0.35649900  0.21986400  0.71853400  1
  Mg  Mg112  1  0.68407600  0.05456700  0.76533000  1
  Mg  Mg113  1  0.99745000  0.44543300  0.73867000  1
  Mg  Mg114  1  0.87691900  0.29076000  0.72145100  1
  Mg  Mg115  1  0.80460700  0.20924000  0.78254900  1
  Mg  Mg116  1  0.26724200  0.42230000  0.77721100  1
  Mg  Mg117  1  0.41428400  0.07770000  0.72678900  1
  Mg  Mg118  1  0.39277200  0.02103200  0.79514400  1
  Mg  Mg119  1  0.28875300  0.47896800  0.70885600  1
  Ir  Ir120  1  0.78558700  0.86887800  0.27983200  1
  Ir  Ir121  1  0.89593800  0.63112200  0.22416800  1
  Ir  Ir122  1  0.00128600  0.66794400  0.27500200  1
  Ir  Ir123  1  0.68024000  0.83205600  0.22899800  1
  Ir  Ir124  1  0.52994700  0.83205600  0.27909600  1
  Ir  Ir125  1  0.15157900  0.66794400  0.22490400  1
  Ir  Ir126  1  0.41576300  0.00000000  0.22700000  1
  Ir  Ir127  1  0.24258200  0.63582800  0.27368800  1
  Ir  Ir128  1  0.43894300  0.86417200  0.23031200  1
  Ir  Ir129  1  0.05271600  0.90923200  0.27998500  1
  Ir  Ir130  1  0.62880900  0.59076800  0.22401500  1
  Ir  Ir131  1  0.48844600  0.59076800  0.27080300  1
  Ir  Ir132  1  0.19307900  0.90923200  0.23319700  1
  Ir  Ir133  1  0.93558700  0.36887800  0.22983200  1
  Ir  Ir134  1  0.74593800  0.13112200  0.27416800  1
  Ir  Ir135  1  0.15128600  0.16794400  0.22500200  1
  Ir  Ir136  1  0.53024000  0.33205600  0.27899800  1
  Ir  Ir137  1  0.67994700  0.33205600  0.22909600  1
  Ir  Ir138  1  0.00157900  0.16794400  0.27490400  1
  Ir  Ir139  1  0.26576300  0.50000000  0.27700000  1
  Ir  Ir140  1  0.58587900  0.21596400  0.25130200  1
  Ir  Ir141  1  0.09564700  0.28403600  0.25269800  1
  Ir  Ir142  1  0.39258200  0.13582800  0.22368800  1
  Ir  Ir143  1  0.28894300  0.36417200  0.28031200  1
  Ir  Ir144  1  0.20271600  0.40923200  0.22998500  1
  Ir  Ir145  1  0.47880900  0.09076800  0.27401500  1
  Ir  Ir146  1  0.63844600  0.09076800  0.22080300  1
  Ir  Ir147  1  0.04307900  0.40923200  0.28319700  1
  Ir  Ir148  1  0.48558700  0.86887800  0.37983200  1
  Ir  Ir149  1  0.59593800  0.63112200  0.32416800  1
  Ir  Ir150  1  0.70128600  0.66794400  0.37500200  1
  Ir  Ir151  1  0.38024000  0.83205600  0.32899800  1
  Ir  Ir152  1  0.22994700  0.83205600  0.37909600  1
  Ir  Ir153  1  0.85157900  0.66794400  0.32490400  1
  Ir  Ir154  1  0.11576300  0.00000000  0.32700000  1
  Ir  Ir155  1  0.43587900  0.71596400  0.30130200  1
  Ir  Ir156  1  0.94564700  0.78403600  0.30269800  1
  Ir  Ir157  1  0.94258200  0.63582800  0.37368800  1
  Ir  Ir158  1  0.13894300  0.86417200  0.33031200  1
  Ir  Ir159  1  0.75271600  0.90923200  0.37998500  1
  Ir  Ir160  1  0.32880900  0.59076800  0.32401500  1
  Ir  Ir161  1  0.18844600  0.59076800  0.37080300  1
  Ir  Ir162  1  0.89307900  0.90923200  0.33319700  1
  Ir  Ir163  1  0.63558700  0.36887800  0.32983200  1
  Ir  Ir164  1  0.44593800  0.13112200  0.37416800  1
  Ir  Ir165  1  0.85128600  0.16794400  0.32500200  1
  Ir  Ir166  1  0.23024000  0.33205600  0.37899800  1
  Ir  Ir167  1  0.37994700  0.33205600  0.32909600  1
  Ir  Ir168  1  0.70157900  0.16794400  0.37490400  1
  Ir  Ir169  1  0.96576300  0.50000000  0.37700000  1
  Ir  Ir170  1  0.28587900  0.21596400  0.35130200  1
  Ir  Ir171  1  0.79564700  0.28403600  0.35269800  1
  Ir  Ir172  1  0.09258200  0.13582800  0.32368800  1
  Ir  Ir173  1  0.98894300  0.36417200  0.38031200  1
  Ir  Ir174  1  0.90271600  0.40923200  0.32998500  1
  Ir  Ir175  1  0.17880900  0.09076800  0.37401500  1
  Ir  Ir176  1  0.33844600  0.09076800  0.32080300  1
  Ir  Ir177  1  0.74307900  0.40923200  0.38319700  1
  Ir  Ir178  1  0.18558700  0.86887800  0.47983200  1
  Ir  Ir179  1  0.29593800  0.63112200  0.42416800  1
  Ir  Ir180  1  0.40128600  0.66794400  0.47500200  1
  Ir  Ir181  1  0.08024000  0.83205600  0.42899800  1
  Ir  Ir182  1  0.92994700  0.83205600  0.47909600  1
  Ir  Ir183  1  0.55157900  0.66794400  0.42490400  1
  Ir  Ir184  1  0.81576300  0.00000000  0.42700000  1
  Ir  Ir185  1  0.13587900  0.71596400  0.40130200  1
  Ir  Ir186  1  0.64564700  0.78403600  0.40269800  1
  Ir  Ir187  1  0.64258200  0.63582800  0.47368800  1
  Ir  Ir188  1  0.83894300  0.86417200  0.43031200  1
  Ir  Ir189  1  0.45271600  0.90923200  0.47998500  1
  Ir  Ir190  1  0.02880900  0.59076800  0.42401500  1
  Ir  Ir191  1  0.88844600  0.59076800  0.47080300  1
  Ir  Ir192  1  0.59307900  0.90923200  0.43319700  1
  Ir  Ir193  1  0.33558700  0.36887800  0.42983200  1
  Ir  Ir194  1  0.14593800  0.13112200  0.47416800  1
  Ir  Ir195  1  0.55128600  0.16794400  0.42500200  1
  Ir  Ir196  1  0.93024000  0.33205600  0.47899800  1
  Ir  Ir197  1  0.07994700  0.33205600  0.42909600  1
  Ir  Ir198  1  0.40157900  0.16794400  0.47490400  1
  Ir  Ir199  1  0.66576300  0.50000000  0.47700000  1
  Ir  Ir200  1  0.98587900  0.21596400  0.45130200  1
  Ir  Ir201  1  0.49564700  0.28403600  0.45269800  1
  Ir  Ir202  1  0.79258200  0.13582800  0.42368800  1
  Ir  Ir203  1  0.68894300  0.36417200  0.48031200  1
  Ir  Ir204  1  0.60271600  0.40923200  0.42998500  1
  Ir  Ir205  1  0.87880900  0.09076800  0.47401500  1
  Ir  Ir206  1  0.03844600  0.09076800  0.42080300  1
  Ir  Ir207  1  0.44307900  0.40923200  0.48319700  1
  Ir  Ir208  1  0.88558700  0.86887800  0.57983200  1
  Ir  Ir209  1  0.99593800  0.63112200  0.52416800  1
  Ir  Ir210  1  0.10128600  0.66794400  0.57500200  1
  Ir  Ir211  1  0.78024000  0.83205600  0.52899800  1
  Ir  Ir212  1  0.62994700  0.83205600  0.57909600  1
  Ir  Ir213  1  0.25157900  0.66794400  0.52490400  1
  Ir  Ir214  1  0.51576300  0.00000000  0.52700000  1
  Ir  Ir215  1  0.83587900  0.71596400  0.50130200  1
  Ir  Ir216  1  0.34564700  0.78403600  0.50269800  1
  Ir  Ir217  1  0.34258200  0.63582800  0.57368800  1
  Ir  Ir218  1  0.53894300  0.86417200  0.53031200  1
  Ir  Ir219  1  0.15271600  0.90923200  0.57998500  1
  Ir  Ir220  1  0.72880900  0.59076800  0.52401500  1
  Ir  Ir221  1  0.58844600  0.59076800  0.57080300  1
  Ir  Ir222  1  0.29307900  0.90923200  0.53319700  1
  Ir  Ir223  1  0.03558700  0.36887800  0.52983200  1
  Ir  Ir224  1  0.84593800  0.13112200  0.57416800  1
  Ir  Ir225  1  0.25128600  0.16794400  0.52500200  1
  Ir  Ir226  1  0.63024000  0.33205600  0.57899800  1
  Ir  Ir227  1  0.77994700  0.33205600  0.52909600  1
  Ir  Ir228  1  0.10157900  0.16794400  0.57490400  1
  Ir  Ir229  1  0.36576300  0.50000000  0.57700000  1
  Ir  Ir230  1  0.68587900  0.21596400  0.55130200  1
  Ir  Ir231  1  0.19564700  0.28403600  0.55269800  1
  Ir  Ir232  1  0.49258200  0.13582800  0.52368800  1
  Ir  Ir233  1  0.38894300  0.36417200  0.58031200  1
  Ir  Ir234  1  0.30271600  0.40923200  0.52998500  1
  Ir  Ir235  1  0.57880900  0.09076800  0.57401500  1
  Ir  Ir236  1  0.73844600  0.09076800  0.52080300  1
  Ir  Ir237  1  0.14307900  0.40923200  0.58319700  1
  Ir  Ir238  1  0.58558700  0.86887800  0.67983200  1
  Ir  Ir239  1  0.69593800  0.63112200  0.62416800  1
  Ir  Ir240  1  0.80128600  0.66794400  0.67500200  1
  Ir  Ir241  1  0.48024000  0.83205600  0.62899800  1
  Ir  Ir242  1  0.32994700  0.83205600  0.67909600  1
  Ir  Ir243  1  0.95157900  0.66794400  0.62490400  1
  Ir  Ir244  1  0.21576300  0.00000000  0.62700000  1
  Ir  Ir245  1  0.53587900  0.71596400  0.60130200  1
  Ir  Ir246  1  0.04564700  0.78403600  0.60269800  1
  Ir  Ir247  1  0.04258200  0.63582800  0.67368800  1
  Ir  Ir248  1  0.23894300  0.86417200  0.63031200  1
  Ir  Ir249  1  0.85271600  0.90923200  0.67998500  1
  Ir  Ir250  1  0.42880900  0.59076800  0.62401500  1
  Ir  Ir251  1  0.28844600  0.59076800  0.67080300  1
  Ir  Ir252  1  0.99307900  0.90923200  0.63319700  1
  Ir  Ir253  1  0.73558700  0.36887800  0.62983200  1
  Ir  Ir254  1  0.54593800  0.13112200  0.67416800  1
  Ir  Ir255  1  0.95128600  0.16794400  0.62500200  1
  Ir  Ir256  1  0.33024000  0.33205600  0.67899800  1
  Ir  Ir257  1  0.47994700  0.33205600  0.62909600  1
  Ir  Ir258  1  0.80157900  0.16794400  0.67490400  1
  Ir  Ir259  1  0.06576300  0.50000000  0.67700000  1
  Ir  Ir260  1  0.38587900  0.21596400  0.65130200  1
  Ir  Ir261  1  0.89564700  0.28403600  0.65269800  1
  Ir  Ir262  1  0.19258200  0.13582800  0.62368800  1
  Ir  Ir263  1  0.08894300  0.36417200  0.68031200  1
  Ir  Ir264  1  0.00271600  0.40923200  0.62998500  1
  Ir  Ir265  1  0.27880900  0.09076800  0.67401500  1
  Ir  Ir266  1  0.43844600  0.09076800  0.62080300  1
  Ir  Ir267  1  0.84307900  0.40923200  0.68319700  1
  Ir  Ir268  1  0.28558700  0.86887800  0.77983200  1
  Ir  Ir269  1  0.39593800  0.63112200  0.72416800  1
  Ir  Ir270  1  0.50128600  0.66794400  0.77500200  1
  Ir  Ir271  1  0.18024000  0.83205600  0.72899800  1
  Ir  Ir272  1  0.02994700  0.83205600  0.77909600  1
  Ir  Ir273  1  0.65157900  0.66794400  0.72490400  1
  Ir  Ir274  1  0.91576300  0.00000000  0.72700000  1
  Ir  Ir275  1  0.23587900  0.71596400  0.70130200  1
  Ir  Ir276  1  0.74564700  0.78403600  0.70269800  1
  Ir  Ir277  1  0.74258200  0.63582800  0.77368800  1
  Ir  Ir278  1  0.93894300  0.86417200  0.73031200  1
  Ir  Ir279  1  0.55271600  0.90923200  0.77998500  1
  Ir  Ir280  1  0.12880900  0.59076800  0.72401500  1
  Ir  Ir281  1  0.98844600  0.59076800  0.77080300  1
  Ir  Ir282  1  0.69307900  0.90923200  0.73319700  1
  Ir  Ir283  1  0.43558700  0.36887800  0.72983200  1
  Ir  Ir284  1  0.24593800  0.13112200  0.77416800  1
  Ir  Ir285  1  0.65128600  0.16794400  0.72500200  1
  Ir  Ir286  1  0.03024000  0.33205600  0.77899800  1
  Ir  Ir287  1  0.17994700  0.33205600  0.72909600  1
  Ir  Ir288  1  0.50157900  0.16794400  0.77490400  1
  Ir  Ir289  1  0.76576300  0.50000000  0.77700000  1
  Ir  Ir290  1  0.08587900  0.21596400  0.75130200  1
  Ir  Ir291  1  0.59564700  0.28403600  0.75269800  1
  Ir  Ir292  1  0.89258200  0.13582800  0.72368800  1
  Ir  Ir293  1  0.78894300  0.36417200  0.78031200  1
  Ir  Ir294  1  0.70271600  0.40923200  0.72998500  1
  Ir  Ir295  1  0.97880900  0.09076800  0.77401500  1
  Ir  Ir296  1  0.13844600  0.09076800  0.72080300  1
  Ir  Ir297  1  0.54307900  0.40923200  0.78319700  1
