# generated using pymatgen
data_Mg28Ir41
_symmetry_space_group_name_H-M   'P 1'
_cell_length_a   9.72091470
_cell_length_b   10.02721169
_cell_length_c   42.99921300
_cell_angle_alpha   94.02267208
_cell_angle_beta   94.30460560
_cell_angle_gamma   92.31047724
_symmetry_Int_Tables_number   1
_chemical_formula_structural   Mg28Ir41
_chemical_formula_sum   'Mg56 Ir82'
_cell_volume   4164.79203527
_cell_formula_units_Z   2
loop_
 _symmetry_equiv_pos_site_id
 _symmetry_equiv_pos_as_xyz
  1  'x, y, z'
loop_
 _atom_site_type_symbol
 _atom_site_label
 _atom_site_symmetry_multiplicity
 _atom_site_fract_x
 _atom_site_fract_y
 _atom_site_fract_z
 _atom_site_occupancy
  Mg  Mg0  1  0.59892900  0.20514200  0.23952000  1
  Mg  Mg1  1  0.74651200  0.95469600  0.21248000  1
  Mg  Mg2  1  0.00737300  0.63186200  0.28221300  1
  Mg  Mg3  1  0.23806800  0.82797600  0.26978700  1
  Mg  Mg4  1  0.61472700  0.45384700  0.20247300  1
  Mg  Mg5  1  0.73071400  0.70599100  0.24952700  1
  Mg  Mg6  1  0.32056300  0.10470800  0.23355900  1
  Mg  Mg7  1  0.02487900  0.05513000  0.21844100  1
  Mg  Mg8  1  0.10090400  0.35061900  0.25575300  1
  Mg  Mg9  1  0.14453700  0.10921900  0.29624700  1
  Mg  Mg10  1  0.49892900  0.50514200  0.33952000  1
  Mg  Mg11  1  0.64651200  0.25469600  0.31248000  1
  Mg  Mg12  1  0.90737300  0.93186200  0.38221300  1
  Mg  Mg13  1  0.13806800  0.12797600  0.36978700  1
  Mg  Mg14  1  0.51472700  0.75384700  0.30247300  1
  Mg  Mg15  1  0.63071400  0.00599100  0.34952700  1
  Mg  Mg16  1  0.22056300  0.40470800  0.33355900  1
  Mg  Mg17  1  0.92487900  0.35513000  0.31844100  1
  Mg  Mg18  1  0.00090400  0.65061900  0.35575300  1
  Mg  Mg19  1  0.04453700  0.40921900  0.39624700  1
  Mg  Mg20  1  0.39892900  0.80514200  0.43952000  1
  Mg  Mg21  1  0.54651200  0.55469600  0.41248000  1
  Mg  Mg22  1  0.80737300  0.23186200  0.48221300  1
  Mg  Mg23  1  0.03806800  0.42797600  0.46978700  1
  Mg  Mg24  1  0.41472700  0.05384700  0.40247300  1
  Mg  Mg25  1  0.53071400  0.30599100  0.44952700  1
  Mg  Mg26  1  0.12056300  0.70470800  0.43355900  1
  Mg  Mg27  1  0.82487900  0.65513000  0.41844100  1
  Mg  Mg28  1  0.90090400  0.95061900  0.45575300  1
  Mg  Mg29  1  0.94453700  0.70921900  0.49624700  1
  Mg  Mg30  1  0.29892900  0.10514200  0.53952000  1
  Mg  Mg31  1  0.44651200  0.85469600  0.51248000  1
  Mg  Mg32  1  0.70737300  0.53186200  0.58221300  1
  Mg  Mg33  1  0.93806800  0.72797600  0.56978700  1
  Mg  Mg34  1  0.31472700  0.35384700  0.50247300  1
  Mg  Mg35  1  0.43071400  0.60599100  0.54952700  1
  Mg  Mg36  1  0.02056300  0.00470800  0.53355900  1
  Mg  Mg37  1  0.72487900  0.95513000  0.51844100  1
  Mg  Mg38  1  0.80090400  0.25061900  0.55575300  1
  Mg  Mg39  1  0.84453700  0.00921900  0.59624700  1
  Mg  Mg40  1  0.19892900  0.40514200  0.63952000  1
  Mg  Mg41  1  0.34651200  0.15469600  0.61248000  1
  Mg  Mg42  1  0.60737300  0.83186200  0.68221300  1
  Mg  Mg43  1  0.83806800  0.02797600  0.66978700  1
  Mg  Mg44  1  0.21472700  0.65384700  0.60247300  1
  Mg  Mg45  1  0.33071400  0.90599100  0.64952700  1
  Mg  Mg46  1  0.92056300  0.30470800  0.63355900  1
  Mg  Mg47  1  0.62487900  0.25513000  0.61844100  1
  Mg  Mg48  1  0.70090400  0.55061900  0.65575300  1
  Mg  Mg49  1  0.74453700  0.30921900  0.69624700  1
  Mg  Mg50  1  0.09892900  0.70514200  0.73952000  1
  Mg  Mg51  1  0.24651200  0.45469600  0.71248000  1
  Mg  Mg52  1  0.11472700  0.95384700  0.70247300  1
  Mg  Mg53  1  0.23071400  0.20599100  0.74952700  1
  Mg  Mg54  1  0.82056300  0.60470800  0.73355900  1
  Mg  Mg55  1  0.52487900  0.55513000  0.71844100  1
  Ir  Ir56  1  0.37468400  0.28908000  0.28628000  1
  Ir  Ir57  1  0.87075800  0.17075800  0.26572000  1
  Ir  Ir58  1  0.85162900  0.26505900  0.21120400  1
  Ir  Ir59  1  0.49381200  0.89477900  0.24079600  1
  Ir  Ir60  1  0.44390900  0.04448600  0.29069800  1
  Ir  Ir61  1  0.80153200  0.41535200  0.26130200  1
  Ir  Ir62  1  0.17272100  0.57991900  0.22600000  1
  Ir  Ir63  1  0.68669200  0.98524600  0.28010100  1
  Ir  Ir64  1  0.55874900  0.47459200  0.27189900  1
  Ir  Ir65  1  0.91133500  0.51599000  0.21572900  1
  Ir  Ir66  1  0.43410600  0.64384800  0.23627100  1
  Ir  Ir67  1  0.29816400  0.54410300  0.28209200  1
  Ir  Ir68  1  0.94727800  0.91573500  0.26990800  1
  Ir  Ir69  1  0.99406500  0.77537200  0.22312000  1
  Ir  Ir70  1  0.35137600  0.38446600  0.22888000  1
  Ir  Ir71  1  0.27468400  0.58908000  0.38628000  1
  Ir  Ir72  1  0.77075800  0.47075800  0.36572000  1
  Ir  Ir73  1  0.75162900  0.56505900  0.31120400  1
  Ir  Ir74  1  0.39381200  0.19477900  0.34079600  1
  Ir  Ir75  1  0.34390900  0.34448600  0.39069800  1
  Ir  Ir76  1  0.70153200  0.71535200  0.36130200  1
  Ir  Ir77  1  0.07272100  0.87991900  0.32600000  1
  Ir  Ir78  1  0.58669200  0.28524600  0.38010100  1
  Ir  Ir79  1  0.45874900  0.77459200  0.37189900  1
  Ir  Ir80  1  0.81133500  0.81599000  0.31572900  1
  Ir  Ir81  1  0.33410600  0.94384800  0.33627100  1
  Ir  Ir82  1  0.19816400  0.84410300  0.38209200  1
  Ir  Ir83  1  0.84727800  0.21573500  0.36990800  1
  Ir  Ir84  1  0.89406500  0.07537200  0.32312000  1
  Ir  Ir85  1  0.25137600  0.68446600  0.32888000  1
  Ir  Ir86  1  0.17468400  0.88908000  0.48628000  1
  Ir  Ir87  1  0.67075800  0.77075800  0.46572000  1
  Ir  Ir88  1  0.65162900  0.86505900  0.41120400  1
  Ir  Ir89  1  0.29381200  0.49477900  0.44079600  1
  Ir  Ir90  1  0.24390900  0.64448600  0.49069800  1
  Ir  Ir91  1  0.60153200  0.01535200  0.46130200  1
  Ir  Ir92  1  0.97272100  0.17991900  0.42600000  1
  Ir  Ir93  1  0.48669200  0.58524600  0.48010100  1
  Ir  Ir94  1  0.35874900  0.07459200  0.47189900  1
  Ir  Ir95  1  0.71133500  0.11599000  0.41572900  1
  Ir  Ir96  1  0.23410600  0.24384800  0.43627100  1
  Ir  Ir97  1  0.09816400  0.14410300  0.48209200  1
  Ir  Ir98  1  0.74727800  0.51573500  0.46990800  1
  Ir  Ir99  1  0.79406500  0.37537200  0.42312000  1
  Ir  Ir100  1  0.15137600  0.98446600  0.42888000  1
  Ir  Ir101  1  0.07468400  0.18908000  0.58628000  1
  Ir  Ir102  1  0.57075800  0.07075800  0.56572000  1
  Ir  Ir103  1  0.55162900  0.16505900  0.51120400  1
  Ir  Ir104  1  0.19381200  0.79477900  0.54079600  1
  Ir  Ir105  1  0.14390900  0.94448600  0.59069800  1
  Ir  Ir106  1  0.50153200  0.31535200  0.56130200  1
  Ir  Ir107  1  0.87272100  0.47991900  0.52600000  1
  Ir  Ir108  1  0.38669200  0.88524600  0.58010100  1
  Ir  Ir109  1  0.25874900  0.37459200  0.57189900  1
  Ir  Ir110  1  0.61133500  0.41599000  0.51572900  1
  Ir  Ir111  1  0.13410600  0.54384800  0.53627100  1
  Ir  Ir112  1  0.99816400  0.44410300  0.58209200  1
  Ir  Ir113  1  0.64727800  0.81573500  0.56990800  1
  Ir  Ir114  1  0.69406500  0.67537200  0.52312000  1
  Ir  Ir115  1  0.05137600  0.28446600  0.52888000  1
  Ir  Ir116  1  0.97468400  0.48908000  0.68628000  1
  Ir  Ir117  1  0.47075800  0.37075800  0.66572000  1
  Ir  Ir118  1  0.45162900  0.46505900  0.61120400  1
  Ir  Ir119  1  0.09381200  0.09477900  0.64079600  1
  Ir  Ir120  1  0.04390900  0.24448600  0.69069800  1
  Ir  Ir121  1  0.40153200  0.61535200  0.66130200  1
  Ir  Ir122  1  0.77272100  0.77991900  0.62600000  1
  Ir  Ir123  1  0.28669200  0.18524600  0.68010100  1
  Ir  Ir124  1  0.15874900  0.67459200  0.67189900  1
  Ir  Ir125  1  0.51133500  0.71599000  0.61572900  1
  Ir  Ir126  1  0.03410600  0.84384800  0.63627100  1
  Ir  Ir127  1  0.89816400  0.74410300  0.68209200  1
  Ir  Ir128  1  0.54727800  0.11573500  0.66990800  1
  Ir  Ir129  1  0.59406500  0.97537200  0.62312000  1
  Ir  Ir130  1  0.95137600  0.58446600  0.62888000  1
  Ir  Ir131  1  0.35162900  0.76505900  0.71120400  1
  Ir  Ir132  1  0.99381200  0.39477900  0.74079600  1
  Ir  Ir133  1  0.67272100  0.07991900  0.72600000  1
  Ir  Ir134  1  0.41133500  0.01599000  0.71572900  1
  Ir  Ir135  1  0.93410600  0.14384800  0.73627100  1
  Ir  Ir136  1  0.49406500  0.27537200  0.72312000  1
  Ir  Ir137  1  0.85137600  0.88446600  0.72888000  1
