# generated using pymatgen
data_Mg56Zn101
_symmetry_space_group_name_H-M   'P 1'
_cell_length_a   5.07402237
_cell_length_b   17.20699092
_cell_length_c   54.58155700
_cell_angle_alpha   87.89733091
_cell_angle_beta   92.22235669
_cell_angle_gamma   98.42726965
_symmetry_Int_Tables_number   1
_chemical_formula_structural   Mg56Zn101
_chemical_formula_sum   'Mg56 Zn101'
_cell_volume   4708.12472958
_cell_formula_units_Z   1
loop_
 _symmetry_equiv_pos_site_id
 _symmetry_equiv_pos_as_xyz
  1  'x, y, z'
loop_
 _atom_site_type_symbol
 _atom_site_label
 _atom_site_symmetry_multiplicity
 _atom_site_fract_x
 _atom_site_fract_y
 _atom_site_fract_z
 _atom_site_occupancy
  Mg  Mg0  1  0.61366600  0.12124500  0.21561700  1
  Mg  Mg1  1  0.35209000  0.50499000  0.31429300  1
  Mg  Mg2  1  0.07077300  0.90543700  0.33396200  1
  Mg  Mg3  1  0.86527700  0.43333900  0.39996400  1
  Mg  Mg4  1  0.90914700  0.61171900  0.31202200  1
  Mg  Mg5  1  0.64510000  0.11520700  0.27671500  1
  Mg  Mg6  1  0.98712700  0.72739800  0.35705600  1
  Mg  Mg7  1  0.77398400  0.28813900  0.37094600  1
  Mg  Mg8  1  0.49056400  0.69768300  0.39201900  1
  Mg  Mg9  1  0.93011400  0.70976000  0.25888700  1
  Mg  Mg10  1  0.76848800  0.41604100  0.23694700  1
  Mg  Mg11  1  0.14869700  0.02379500  0.37889000  1
  Mg  Mg12  1  0.33316400  0.41234800  0.36371500  1
  Mg  Mg13  1  0.56461400  0.93739800  0.29936900  1
  Mg  Mg14  1  0.27464700  0.38408000  0.27154000  1
  Mg  Mg15  1  0.85213400  0.59408000  0.21385300  1
  Mg  Mg16  1  0.22559500  0.20023300  0.35529200  1
  Mg  Mg17  1  0.19416100  0.20627200  0.29419400  1
  Mg  Mg18  1  0.48717100  0.81648800  0.25661600  1
  Mg  Mg19  1  0.50609700  0.90913000  0.20719400  1
  Mg  Mg20  1  0.41366600  0.52124500  0.41561700  1
  Mg  Mg21  1  0.15209000  0.90499000  0.51429300  1
  Mg  Mg22  1  0.87077300  0.30543700  0.53396200  1
  Mg  Mg23  1  0.66527700  0.83333900  0.59996400  1
  Mg  Mg24  1  0.70914700  0.01171900  0.51202200  1
  Mg  Mg25  1  0.44510000  0.51520700  0.47671500  1
  Mg  Mg26  1  0.78712700  0.12739800  0.55705600  1
  Mg  Mg27  1  0.57398400  0.68813900  0.57094600  1
  Mg  Mg28  1  0.29056400  0.09768300  0.59201900  1
  Mg  Mg29  1  0.73011400  0.10976000  0.45888700  1
  Mg  Mg30  1  0.56848800  0.81604100  0.43694700  1
  Mg  Mg31  1  0.94869700  0.42379500  0.57889000  1
  Mg  Mg32  1  0.13316400  0.81234800  0.56371500  1
  Mg  Mg33  1  0.36461400  0.33739800  0.49936900  1
  Mg  Mg34  1  0.07464700  0.78408000  0.47154000  1
  Mg  Mg35  1  0.65213400  0.99408000  0.41385300  1
  Mg  Mg36  1  0.02559500  0.60023300  0.55529200  1
  Mg  Mg37  1  0.99416100  0.60627200  0.49419400  1
  Mg  Mg38  1  0.28717100  0.21648800  0.45661600  1
  Mg  Mg39  1  0.30609700  0.30913000  0.40719400  1
  Mg  Mg40  1  0.21366600  0.92124500  0.61561700  1
  Mg  Mg41  1  0.95209000  0.30499000  0.71429300  1
  Mg  Mg42  1  0.67077300  0.70543700  0.73396200  1
  Mg  Mg43  1  0.50914700  0.41171900  0.71202200  1
  Mg  Mg44  1  0.24510000  0.91520700  0.67671500  1
  Mg  Mg45  1  0.58712700  0.52739800  0.75705600  1
  Mg  Mg46  1  0.53011400  0.50976000  0.65888700  1
  Mg  Mg47  1  0.36848800  0.21604100  0.63694700  1
  Mg  Mg48  1  0.93316400  0.21234800  0.76371500  1
  Mg  Mg49  1  0.16461400  0.73739800  0.69936900  1
  Mg  Mg50  1  0.87464700  0.18408000  0.67154000  1
  Mg  Mg51  1  0.45213400  0.39408000  0.61385300  1
  Mg  Mg52  1  0.82559500  0.00023300  0.75529200  1
  Mg  Mg53  1  0.79416100  0.00627200  0.69419400  1
  Mg  Mg54  1  0.08717100  0.61648800  0.65661600  1
  Mg  Mg55  1  0.10609700  0.70913000  0.60719400  1
  Zn  Zn56  1  0.44231000  0.66568300  0.33407100  1
  Zn  Zn57  1  0.84469600  0.45600400  0.34178100  1
  Zn  Zn58  1  0.23649600  0.35759200  0.21530700  1
  Zn  Zn59  1  0.67594100  0.75386000  0.20617000  1
  Zn  Zn60  1  0.09586500  0.54325500  0.26509400  1
  Zn  Zn61  1  0.65877600  0.56671400  0.36367600  1
  Zn  Zn62  1  0.81963000  0.86073900  0.38545500  1
  Zn  Zn63  1  0.39695100  0.65579500  0.23683800  1
  Zn  Zn64  1  0.73536500  0.29300800  0.28304200  1
  Zn  Zn65  1  0.23712100  0.77844200  0.30586800  1
  Zn  Zn66  1  0.94206400  0.25370400  0.24417500  1
  Zn  Zn67  1  0.12847200  0.11929600  0.24633100  1
  Zn  Zn68  1  0.52788400  0.81572300  0.34614600  1
  Zn  Zn69  1  0.02896900  0.87663800  0.27721500  1
  Zn  Zn70  1  0.99456500  0.86547500  0.22912900  1
  Zn  Zn71  1  0.10389600  0.02847000  0.28786700  1
  Zn  Zn72  1  0.32236300  0.98562600  0.24772700  1
  Zn  Zn73  1  0.60214000  0.54303600  0.26504200  1
  Zn  Zn74  1  0.18048500  0.75476500  0.20723300  1
  Zn  Zn75  1  0.31137700  0.50575500  0.22476300  1
  Zn  Zn76  1  0.51689800  0.33585200  0.32318200  1
  Zn  Zn77  1  0.74339600  0.77822400  0.30581500  1
  Zn  Zn78  1  0.31963000  0.86073900  0.38545500  1
  Zn  Zn79  1  0.94803500  0.61116600  0.40293700  1
  Zn  Zn80  1  0.44647300  0.25399000  0.24458100  1
  Zn  Zn81  1  0.80853500  0.98566100  0.24683500  1
  Zn  Zn82  1  0.69122600  0.11031200  0.36797200  1
  Zn  Zn83  1  0.03072600  0.33581700  0.32407400  1
  Zn  Zn84  1  0.81029200  0.44484000  0.29369400  1
  Zn  Zn85  1  0.39278800  0.06748800  0.32632800  1
  Zn  Zn86  1  0.16332000  0.56761800  0.36473900  1
  Zn  Zn87  1  0.41963000  0.66073900  0.28545500  1
  Zn  Zn88  1  0.89719700  0.06777400  0.32673400  1
  Zn  Zn89  1  0.71078900  0.20218200  0.32457800  1
  Zn  Zn90  1  0.60276500  0.96388600  0.35560200  1
  Zn  Zn91  1  0.24231000  0.06568300  0.53407100  1
  Zn  Zn92  1  0.64469600  0.85600400  0.54178100  1
  Zn  Zn93  1  0.03649600  0.75759200  0.41530700  1
  Zn  Zn94  1  0.47594100  0.15386000  0.40617000  1
  Zn  Zn95  1  0.89586500  0.94325500  0.46509400  1
  Zn  Zn96  1  0.45877600  0.96671400  0.56367600  1
  Zn  Zn97  1  0.61963000  0.26073900  0.58545500  1
  Zn  Zn98  1  0.19695100  0.05579500  0.43683800  1
  Zn  Zn99  1  0.53536500  0.69300800  0.48304200  1
  Zn  Zn100  1  0.03712100  0.17844200  0.50586800  1
  Zn  Zn101  1  0.74206400  0.65370400  0.44417500  1
  Zn  Zn102  1  0.92847200  0.51929600  0.44633100  1
  Zn  Zn103  1  0.32788400  0.21572300  0.54614600  1
  Zn  Zn104  1  0.82896900  0.27663800  0.47721500  1
  Zn  Zn105  1  0.79456500  0.26547500  0.42912900  1
  Zn  Zn106  1  0.90389600  0.42847000  0.48786700  1
  Zn  Zn107  1  0.12236300  0.38562600  0.44772700  1
  Zn  Zn108  1  0.40214000  0.94303600  0.46504200  1
  Zn  Zn109  1  0.98048500  0.15476500  0.40723300  1
  Zn  Zn110  1  0.11137700  0.90575500  0.42476300  1
  Zn  Zn111  1  0.31689800  0.73585200  0.52318200  1
  Zn  Zn112  1  0.54339600  0.17822400  0.50581500  1
  Zn  Zn113  1  0.11963000  0.26073900  0.58545500  1
  Zn  Zn114  1  0.74803500  0.01116600  0.60293700  1
  Zn  Zn115  1  0.24647300  0.65399000  0.44458100  1
  Zn  Zn116  1  0.60853500  0.38566100  0.44683500  1
  Zn  Zn117  1  0.49122600  0.51031200  0.56797200  1
  Zn  Zn118  1  0.83072600  0.73581700  0.52407400  1
  Zn  Zn119  1  0.61029200  0.84484000  0.49369400  1
  Zn  Zn120  1  0.19278800  0.46748800  0.52632800  1
  Zn  Zn121  1  0.96332000  0.96761800  0.56473900  1
  Zn  Zn122  1  0.21963000  0.06073900  0.48545500  1
  Zn  Zn123  1  0.69719700  0.46777400  0.52673400  1
  Zn  Zn124  1  0.51078900  0.60218200  0.52457800  1
  Zn  Zn125  1  0.40276500  0.36388600  0.55560200  1
  Zn  Zn126  1  0.04231000  0.46568300  0.73407100  1
  Zn  Zn127  1  0.44469600  0.25600400  0.74178100  1
  Zn  Zn128  1  0.83649600  0.15759200  0.61530700  1
  Zn  Zn129  1  0.27594100  0.55386000  0.60617000  1
  Zn  Zn130  1  0.69586500  0.34325500  0.66509400  1
  Zn  Zn131  1  0.25877600  0.36671400  0.76367600  1
  Zn  Zn132  1  0.99695100  0.45579500  0.63683800  1
  Zn  Zn133  1  0.33536500  0.09300800  0.68304200  1
  Zn  Zn134  1  0.83712100  0.57844200  0.70586800  1
  Zn  Zn135  1  0.54206400  0.05370400  0.64417500  1
  Zn  Zn136  1  0.72847200  0.91929600  0.64633100  1
  Zn  Zn137  1  0.12788400  0.61572300  0.74614600  1
  Zn  Zn138  1  0.62896900  0.67663800  0.67721500  1
  Zn  Zn139  1  0.59456500  0.66547500  0.62912900  1
  Zn  Zn140  1  0.70389600  0.82847000  0.68786700  1
  Zn  Zn141  1  0.92236300  0.78562600  0.64772700  1
  Zn  Zn142  1  0.20214000  0.34303600  0.66504200  1
  Zn  Zn143  1  0.78048500  0.55476500  0.60723300  1
  Zn  Zn144  1  0.91137700  0.30575500  0.62476300  1
  Zn  Zn145  1  0.11689800  0.13585200  0.72318200  1
  Zn  Zn146  1  0.34339600  0.57822400  0.70581500  1
  Zn  Zn147  1  0.04647300  0.05399000  0.64458100  1
  Zn  Zn148  1  0.40853500  0.78566100  0.64683500  1
  Zn  Zn149  1  0.63072600  0.13581700  0.72407400  1
  Zn  Zn150  1  0.41029200  0.24484000  0.69369400  1
  Zn  Zn151  1  0.99278800  0.86748800  0.72632800  1
  Zn  Zn152  1  0.76332000  0.36761800  0.76473900  1
  Zn  Zn153  1  0.01963000  0.46073900  0.68545500  1
  Zn  Zn154  1  0.49719700  0.86777400  0.72673400  1
  Zn  Zn155  1  0.31078900  0.00218200  0.72457800  1
  Zn  Zn156  1  0.20276500  0.76388600  0.75560200  1
