# generated using pymatgen
data_Ba28Mg57
_symmetry_space_group_name_H-M   'P 1'
_cell_length_a   11.41227500
_cell_length_b   12.70238075
_cell_length_c   40.99777200
_cell_angle_alpha   91.35370379
_cell_angle_beta   90.00000000
_cell_angle_gamma   63.30648272
_symmetry_Int_Tables_number   1
_chemical_formula_structural   Ba28Mg57
_chemical_formula_sum   'Ba28 Mg57'
_cell_volume   5307.89686498
_cell_formula_units_Z   1
loop_
 _symmetry_equiv_pos_site_id
 _symmetry_equiv_pos_as_xyz
  1  'x, y, z'
loop_
 _atom_site_type_symbol
 _atom_site_label
 _atom_site_symmetry_multiplicity
 _atom_site_fract_x
 _atom_site_fract_y
 _atom_site_fract_z
 _atom_site_occupancy
  Ba  Ba0  1  0.45064400  0.79454800  0.33846100  1
  Ba  Ba1  1  0.01474600  0.33300900  0.30000000  1
  Ba  Ba2  1  0.19166600  0.97917000  0.27051300  1
  Ba  Ba3  1  0.62756300  0.44070900  0.30897500  1
  Ba  Ba4  1  0.98910500  0.71762500  0.41538400  1
  Ba  Ba5  1  0.55320800  0.25608600  0.37692300  1
  Ba  Ba6  1  0.73012700  0.90224700  0.34743600  1
  Ba  Ba7  1  0.16602500  0.36378600  0.38589800  1
  Ba  Ba8  1  0.52756700  0.64070200  0.49230700  1
  Ba  Ba9  1  0.09166900  0.17916300  0.45384600  1
  Ba  Ba10  1  0.26858900  0.82532400  0.42435900  1
  Ba  Ba11  1  0.70448600  0.28686300  0.46282100  1
  Ba  Ba12  1  0.06602800  0.56377900  0.56923000  1
  Ba  Ba13  1  0.63013100  0.10224000  0.53076900  1
  Ba  Ba14  1  0.80705000  0.74840100  0.50128200  1
  Ba  Ba15  1  0.24294800  0.20994000  0.53974400  1
  Ba  Ba16  1  0.60449000  0.48685500  0.64615400  1
  Ba  Ba17  1  0.16859200  0.02531700  0.60769200  1
  Ba  Ba18  1  0.34551200  0.67147800  0.57820500  1
  Ba  Ba19  1  0.78140900  0.13301700  0.61666700  1
  Ba  Ba20  1  0.14295100  0.40993200  0.72307700  1
  Ba  Ba21  1  0.70705400  0.94839400  0.68461500  1
  Ba  Ba22  1  0.88397300  0.59455500  0.65512900  1
  Ba  Ba23  1  0.31987100  0.05609400  0.69359000  1
  Ba  Ba24  1  0.68141300  0.33300900  0.80000000  1
  Ba  Ba25  1  0.24551600  0.87147100  0.76153800  1
  Ba  Ba26  1  0.42243500  0.51763200  0.73205200  1
  Ba  Ba27  1  0.85833200  0.97917000  0.77051300  1
  Mg  Mg28  1  0.55192400  0.92532100  0.26602600  1
  Mg  Mg29  1  0.37361600  0.11833600  0.32301000  1
  Mg  Mg30  1  0.76798500  0.65679800  0.28454900  1
  Mg  Mg31  1  0.04217000  0.61762800  0.32371800  1
  Mg  Mg32  1  0.60013900  0.15609000  0.28525600  1
  Mg  Mg33  1  0.32115500  0.38685900  0.30448700  1
  Mg  Mg34  1  0.09038600  0.84839800  0.34294900  1
  Mg  Mg35  1  0.26869300  0.65538200  0.28596400  1
  Mg  Mg36  1  0.87432400  0.11692100  0.32442600  1
  Mg  Mg37  1  0.91207800  0.04141300  0.39993300  1
  Mg  Mg38  1  0.30644700  0.57987500  0.36147200  1
  Mg  Mg39  1  0.58063200  0.54070500  0.40064100  1
  Mg  Mg40  1  0.13860100  0.07916700  0.36217900  1
  Mg  Mg41  1  0.85961600  0.30993600  0.38141000  1
  Mg  Mg42  1  0.62884700  0.77147500  0.41987200  1
  Mg  Mg43  1  0.80715500  0.57845900  0.36288700  1
  Mg  Mg44  1  0.41278600  0.03999800  0.40134900  1
  Mg  Mg45  1  0.45053900  0.96449000  0.47685600  1
  Mg  Mg46  1  0.84490900  0.50295100  0.43839500  1
  Mg  Mg47  1  0.11909300  0.46378200  0.47756400  1
  Mg  Mg48  1  0.67706200  0.00224400  0.43910300  1
  Mg  Mg49  1  0.39807800  0.23301300  0.45833300  1
  Mg  Mg50  1  0.16730900  0.69455100  0.49679500  1
  Mg  Mg51  1  0.34561600  0.50153600  0.43981000  1
  Mg  Mg52  1  0.95124700  0.96307400  0.47827200  1
  Mg  Mg53  1  0.98900100  0.88756700  0.55377900  1
  Mg  Mg54  1  0.38337000  0.42602800  0.51531800  1
  Mg  Mg55  1  0.65755500  0.38685900  0.55448700  1
  Mg  Mg56  1  0.21552400  0.92532100  0.51602600  1
  Mg  Mg57  1  0.93653900  0.15609000  0.53525600  1
  Mg  Mg58  1  0.70577000  0.61762800  0.57371800  1
  Mg  Mg59  1  0.88407800  0.42461300  0.51673300  1
  Mg  Mg60  1  0.48970900  0.88615100  0.55519500  1
  Mg  Mg61  1  0.52746300  0.81064400  0.63070300  1
  Mg  Mg62  1  0.92183200  0.34910500  0.59224100  1
  Mg  Mg63  1  0.19601600  0.30993600  0.63141000  1
  Mg  Mg64  1  0.75398500  0.84839800  0.59294900  1
  Mg  Mg65  1  0.47500100  0.07916700  0.61217900  1
  Mg  Mg66  1  0.24423200  0.54070500  0.65064100  1
  Mg  Mg67  1  0.42253900  0.34769000  0.59365600  1
  Mg  Mg68  1  0.02817000  0.80922800  0.63211800  1
  Mg  Mg69  1  0.06592400  0.73372100  0.70762600  1
  Mg  Mg70  1  0.46029300  0.27218200  0.66916400  1
  Mg  Mg71  1  0.73447800  0.23301300  0.70833300  1
  Mg  Mg72  1  0.29244700  0.77147500  0.66987200  1
  Mg  Mg73  1  0.01346200  0.00224400  0.68910300  1
  Mg  Mg74  1  0.78269300  0.46378200  0.72756400  1
  Mg  Mg75  1  0.96100100  0.27076700  0.67058000  1
  Mg  Mg76  1  0.56663200  0.73230500  0.70904100  1
  Mg  Mg77  1  0.60438600  0.65679800  0.78454900  1
  Mg  Mg78  1  0.99875500  0.19525900  0.74608700  1
  Mg  Mg79  1  0.27294000  0.15609000  0.78525600  1
  Mg  Mg80  1  0.83090800  0.69455100  0.74679500  1
  Mg  Mg81  1  0.55192400  0.92532100  0.76602600  1
  Mg  Mg82  1  0.32115500  0.38685900  0.80448700  1
  Mg  Mg83  1  0.49946200  0.19384400  0.74750300  1
  Mg  Mg84  1  0.10509300  0.65538200  0.78596400  1
