# generated using pymatgen
data_Mg7Sn23
_symmetry_space_group_name_H-M   'P 1'
_cell_length_a   4.71997500
_cell_length_b   6.67505245
_cell_length_c   43.51601600
_cell_angle_alpha   94.39870404
_cell_angle_beta   90.00000000
_cell_angle_gamma   90.00000000
_symmetry_Int_Tables_number   1
_chemical_formula_structural   Mg7Sn23
_chemical_formula_sum   'Mg7 Sn23'
_cell_volume   1366.98075746
_cell_formula_units_Z   1
loop_
 _symmetry_equiv_pos_site_id
 _symmetry_equiv_pos_as_xyz
  1  'x, y, z'
loop_
 _atom_site_type_symbol
 _atom_site_label
 _atom_site_symmetry_multiplicity
 _atom_site_fract_x
 _atom_site_fract_y
 _atom_site_fract_z
 _atom_site_occupancy
  Mg  Mg0  1  1.00000000  0.65384600  0.25000000  1
  Mg  Mg1  1  0.00000000  0.19230800  0.32692300  1
  Mg  Mg2  1  1.00000000  0.73076900  0.40384600  1
  Mg  Mg3  1  1.00000000  0.26923100  0.48076900  1
  Mg  Mg4  1  0.00000000  0.80769200  0.55769200  1
  Mg  Mg5  1  1.00000000  0.34615400  0.63461500  1
  Mg  Mg6  1  1.00000000  0.88461500  0.71153800  1
  Sn  Sn7  1  1.00000000  0.15384600  0.25000000  1
  Sn  Sn8  1  0.50000000  0.88461500  0.21153800  1
  Sn  Sn9  1  0.50000000  0.38461500  0.21153800  1
  Sn  Sn10  1  1.00000000  0.69230800  0.32692300  1
  Sn  Sn11  1  0.50000000  0.42307700  0.28846200  1
  Sn  Sn12  1  0.50000000  0.92307700  0.28846200  1
  Sn  Sn13  1  1.00000000  0.23076900  0.40384600  1
  Sn  Sn14  1  0.50000000  0.96153800  0.36538500  1
  Sn  Sn15  1  0.50000000  0.46153800  0.36538500  1
  Sn  Sn16  1  0.00000000  0.76923100  0.48076900  1
  Sn  Sn17  1  0.50000000  0.50000000  0.44230800  1
  Sn  Sn18  1  0.50000000  0.00000000  0.44230800  1
  Sn  Sn19  1  1.00000000  0.30769200  0.55769200  1
  Sn  Sn20  1  0.50000000  0.03846200  0.51923100  1
  Sn  Sn21  1  0.50000000  0.53846200  0.51923100  1
  Sn  Sn22  1  1.00000000  0.84615400  0.63461500  1
  Sn  Sn23  1  0.50000000  0.57692300  0.59615400  1
  Sn  Sn24  1  0.50000000  0.07692300  0.59615400  1
  Sn  Sn25  1  0.00000000  0.38461500  0.71153800  1
  Sn  Sn26  1  0.50000000  0.11538500  0.67307700  1
  Sn  Sn27  1  0.50000000  0.61538500  0.67307700  1
  Sn  Sn28  1  0.50000000  0.65384600  0.75000000  1
  Sn  Sn29  1  0.50000000  0.15384600  0.75000000  1
