# generated using pymatgen
data_Mg38Zn69
_symmetry_space_group_name_H-M   'P 1'
_cell_length_a   5.07402229
_cell_length_b   14.70723601
_cell_length_c   50.49845100
_cell_angle_alpha   88.21601723
_cell_angle_beta   89.67566990
_cell_angle_gamma   90.29193359
_symmetry_Int_Tables_number   1
_chemical_formula_structural   Mg38Zn69
_chemical_formula_sum   'Mg38 Zn69'
_cell_volume   3766.49971225
_cell_formula_units_Z   1
loop_
 _symmetry_equiv_pos_site_id
 _symmetry_equiv_pos_as_xyz
  1  'x, y, z'
loop_
 _atom_site_type_symbol
 _atom_site_label
 _atom_site_symmetry_multiplicity
 _atom_site_fract_x
 _atom_site_fract_y
 _atom_site_fract_z
 _atom_site_occupancy
  Mg  Mg0  1  0.51104300  0.04360200  0.30593000  1
  Mg  Mg1  1  0.00825600  0.06005400  0.47587300  1
  Mg  Mg2  1  0.01688200  0.55629800  0.34073700  1
  Mg  Mg3  1  0.01443400  0.02072100  0.27221400  1
  Mg  Mg4  1  0.01308500  0.39634600  0.25085200  1
  Mg  Mg5  1  0.51494700  0.87105500  0.35024400  1
  Mg  Mg6  1  0.01070700  0.35926000  0.31354800  1
  Mg  Mg7  1  0.51024900  0.74162100  0.46415000  1
  Mg  Mg8  1  0.51152200  0.24082700  0.33234100  1
  Mg  Mg9  1  0.51159800  0.36599600  0.48551200  1
  Mg  Mg10  1  0.50780200  0.20604300  0.39562700  1
  Mg  Mg11  1  0.01316200  0.52151400  0.40402300  1
  Mg  Mg12  1  0.01094100  0.85466100  0.48978000  1
  Mg  Mg13  1  0.51203900  0.67539900  0.32278300  1
  Mg  Mg14  1  0.01264500  0.08694300  0.41358100  1
  Mg  Mg15  1  0.51397600  0.40308100  0.42281600  1
  Mg  Mg16  1  0.01364000  0.71874000  0.43043300  1
  Mg  Mg17  1  0.00973600  0.89128600  0.38612000  1
  Mg  Mg18  1  0.51642700  0.70228700  0.26049000  1
  Mg  Mg19  1  0.01374300  0.65768000  0.49658400  1
  Mg  Mg20  1  0.01104300  0.79360200  0.55593000  1
  Mg  Mg21  1  0.50825600  0.81005400  0.72587300  1
  Mg  Mg22  1  0.51688200  0.30629800  0.59073700  1
  Mg  Mg23  1  0.51443400  0.77072100  0.52221400  1
  Mg  Mg24  1  0.51308500  0.14634600  0.50085200  1
  Mg  Mg25  1  0.01494700  0.62105500  0.60024400  1
  Mg  Mg26  1  0.51070700  0.10926000  0.56354800  1
  Mg  Mg27  1  0.01024900  0.49162100  0.71415000  1
  Mg  Mg28  1  0.01152200  0.99082700  0.58234100  1
  Mg  Mg29  1  0.01159800  0.11599600  0.73551200  1
  Mg  Mg30  1  0.00780200  0.95604300  0.64562700  1
  Mg  Mg31  1  0.51316200  0.27151400  0.65402300  1
  Mg  Mg32  1  0.01203900  0.42539900  0.57278300  1
  Mg  Mg33  1  0.51264500  0.83694300  0.66358100  1
  Mg  Mg34  1  0.01397600  0.15308100  0.67281600  1
  Mg  Mg35  1  0.51364000  0.46874000  0.68043300  1
  Mg  Mg36  1  0.50973600  0.64128600  0.63612000  1
  Mg  Mg37  1  0.01642700  0.45228700  0.51049000  1
  Zn  Zn38  1  0.50824000  0.37618200  0.28088100  1
  Zn  Zn39  1  0.51161200  0.94772300  0.48424200  1
  Zn  Zn40  1  0.01585400  0.22171600  0.36478500  1
  Zn  Zn41  1  0.26173400  0.54404300  0.45699900  1
  Zn  Zn42  1  0.75749900  0.22404800  0.44854100  1
  Zn  Zn43  1  0.75938900  0.22054200  0.27834200  1
  Zn  Zn44  1  0.76234200  0.38117100  0.36818200  1
  Zn  Zn45  1  0.01644300  0.38615900  0.45548300  1
  Zn  Zn46  1  0.51314800  0.98700600  0.39944000  1
  Zn  Zn47  1  0.26077400  0.53831200  0.28791700  1
  Zn  Zn48  1  0.75893300  0.06441300  0.36046300  1
  Zn  Zn49  1  0.01146700  0.95767800  0.32847900  1
  Zn  Zn50  1  0.51275700  0.45550700  0.32744600  1
  Zn  Zn51  1  0.01785000  0.69075300  0.29097700  1
  Zn  Zn52  1  0.01307100  0.81461900  0.25212100  1
  Zn  Zn53  1  0.01153500  0.77533500  0.33692400  1
  Zn  Zn54  1  0.27149400  0.85358800  0.29610800  1
  Zn  Zn55  1  0.26390900  0.22402900  0.44844600  1
  Zn  Zn56  1  0.76529400  0.54179900  0.45802200  1
  Zn  Zn57  1  0.01192600  0.30683400  0.40891700  1
  Zn  Zn58  1  0.25318900  0.90875400  0.44025600  1
  Zn  Zn59  1  0.76718500  0.53829400  0.28782300  1
  Zn  Zn60  1  0.26234200  0.38117100  0.36818200  1
  Zn  Zn61  1  0.00679100  0.14591400  0.31890100  1
  Zn  Zn62  1  0.26299500  0.06351100  0.36084000  1
  Zn  Zn63  1  0.75809500  0.85606700  0.29544700  1
  Zn  Zn64  1  0.51789200  0.61642700  0.41746300  1
  Zn  Zn65  1  0.76658800  0.90627500  0.44091600  1
  Zn  Zn66  1  0.50683300  0.07158900  0.44538700  1
  Zn  Zn67  1  0.26168800  0.69883100  0.37552400  1
  Zn  Zn68  1  0.26294900  0.21829900  0.27936500  1
  Zn  Zn69  1  0.01234200  0.25617100  0.49318200  1
  Zn  Zn70  1  0.76575000  0.69792900  0.37590000  1
  Zn  Zn71  1  0.51321700  0.80466400  0.40788500  1
  Zn  Zn72  1  0.50882900  0.54062600  0.37157900  1
  Zn  Zn73  1  0.00824000  0.12618200  0.53088100  1
  Zn  Zn74  1  0.01161200  0.69772300  0.73424200  1
  Zn  Zn75  1  0.51585400  0.97171600  0.61478500  1
  Zn  Zn76  1  0.76173400  0.29404300  0.70699900  1
  Zn  Zn77  1  0.25749900  0.97404800  0.69854100  1
  Zn  Zn78  1  0.25938900  0.97054200  0.52834200  1
  Zn  Zn79  1  0.26234200  0.13117100  0.61818200  1
  Zn  Zn80  1  0.51644300  0.13615900  0.70548300  1
  Zn  Zn81  1  0.01314800  0.73700600  0.64944000  1
  Zn  Zn82  1  0.76077400  0.28831200  0.53791700  1
  Zn  Zn83  1  0.25893300  0.81441300  0.61046300  1
  Zn  Zn84  1  0.51146700  0.70767800  0.57847900  1
  Zn  Zn85  1  0.01275700  0.20550700  0.57744600  1
  Zn  Zn86  1  0.51785000  0.44075300  0.54097700  1
  Zn  Zn87  1  0.51307100  0.56461900  0.50212100  1
  Zn  Zn88  1  0.51153500  0.52533500  0.58692400  1
  Zn  Zn89  1  0.77149400  0.60358800  0.54610800  1
  Zn  Zn90  1  0.76390900  0.97402900  0.69844600  1
  Zn  Zn91  1  0.26529400  0.29179900  0.70802200  1
  Zn  Zn92  1  0.51192600  0.05683400  0.65891700  1
  Zn  Zn93  1  0.75318900  0.65875400  0.69025600  1
  Zn  Zn94  1  0.26718500  0.28829400  0.53782300  1
  Zn  Zn95  1  0.76234200  0.13117100  0.61818200  1
  Zn  Zn96  1  0.50679100  0.89591400  0.56890100  1
  Zn  Zn97  1  0.76299500  0.81351100  0.61084000  1
  Zn  Zn98  1  0.25809500  0.60606700  0.54544700  1
  Zn  Zn99  1  0.01789200  0.36642700  0.66746300  1
  Zn  Zn100  1  0.26658800  0.65627500  0.69091600  1
  Zn  Zn101  1  0.00683300  0.82158900  0.69538700  1
  Zn  Zn102  1  0.76168800  0.44883100  0.62552400  1
  Zn  Zn103  1  0.76294900  0.96829900  0.52936500  1
  Zn  Zn104  1  0.26575000  0.44792900  0.62590000  1
  Zn  Zn105  1  0.01321700  0.55466400  0.65788500  1
  Zn  Zn106  1  0.00882900  0.29062600  0.62157900  1
