# generated using pymatgen
data_Mg3Ir4
_symmetry_space_group_name_H-M   'P 1'
_cell_length_a   8.54477469
_cell_length_b   9.72091536
_cell_length_c   40.45091800
_cell_angle_alpha   92.27818184
_cell_angle_beta   91.63073542
_cell_angle_gamma   96.80090534
_symmetry_Int_Tables_number   1
_chemical_formula_structural   Mg3Ir4
_chemical_formula_sum   'Mg48 Ir64'
_cell_volume   3331.83388964
_cell_formula_units_Z   16
loop_
 _symmetry_equiv_pos_site_id
 _symmetry_equiv_pos_as_xyz
  1  'x, y, z'
loop_
 _atom_site_type_symbol
 _atom_site_label
 _atom_site_symmetry_multiplicity
 _atom_site_fract_x
 _atom_site_fract_y
 _atom_site_fract_z
 _atom_site_occupancy
  Mg  Mg0  1  0.91533800  0.25640500  0.80998300  1
  Mg  Mg1  1  0.08466200  0.43191400  0.75501700  1
  Mg  Mg2  1  0.61669600  0.74184600  0.77567900  1
  Mg  Mg3  1  0.38330400  0.94647300  0.78932100  1
  Mg  Mg4  1  0.55549200  0.23648400  0.80865500  1
  Mg  Mg5  1  0.44450800  0.45183500  0.75634500  1
  Mg  Mg6  1  0.99788700  0.98984800  0.79221300  1
  Mg  Mg7  1  0.00211300  0.69847100  0.77278700  1
  Mg  Mg8  1  0.81855800  0.86722500  0.71737100  1
  Mg  Mg9  1  0.18144200  0.94609400  0.72262900  1
  Mg  Mg10  1  0.91533800  0.38140500  0.68498300  1
  Mg  Mg11  1  0.08466200  0.55691400  0.63001700  1
  Mg  Mg12  1  0.61669600  0.86684600  0.65067900  1
  Mg  Mg13  1  0.38330400  0.07147300  0.66432100  1
  Mg  Mg14  1  0.55549200  0.36148400  0.68365500  1
  Mg  Mg15  1  0.44450800  0.57683500  0.63134500  1
  Mg  Mg16  1  0.99788700  0.11484800  0.66721300  1
  Mg  Mg17  1  0.00211300  0.82347100  0.64778700  1
  Mg  Mg18  1  0.81855800  0.99222500  0.59237100  1
  Mg  Mg19  1  0.18144200  0.07109400  0.59762900  1
  Mg  Mg20  1  0.91533800  0.50640500  0.55998300  1
  Mg  Mg21  1  0.08466200  0.68191400  0.50501700  1
  Mg  Mg22  1  0.61669600  0.99184600  0.52567900  1
  Mg  Mg23  1  0.38330400  0.19647300  0.53932100  1
  Mg  Mg24  1  0.55549200  0.48648400  0.55865500  1
  Mg  Mg25  1  0.44450800  0.70183500  0.50634500  1
  Mg  Mg26  1  0.99788700  0.23984800  0.54221300  1
  Mg  Mg27  1  0.00211300  0.94847100  0.52278700  1
  Mg  Mg28  1  0.81855800  0.11722500  0.46737100  1
  Mg  Mg29  1  0.18144200  0.19609400  0.47262900  1
  Mg  Mg30  1  0.91533800  0.63140500  0.43498300  1
  Mg  Mg31  1  0.08466200  0.80691400  0.38001700  1
  Mg  Mg32  1  0.61669600  0.11684600  0.40067900  1
  Mg  Mg33  1  0.38330400  0.32147300  0.41432100  1
  Mg  Mg34  1  0.55549200  0.61148400  0.43365500  1
  Mg  Mg35  1  0.44450800  0.82683500  0.38134500  1
  Mg  Mg36  1  0.99788700  0.36484800  0.41721300  1
  Mg  Mg37  1  0.00211300  0.07347100  0.39778700  1
  Mg  Mg38  1  0.81855800  0.24222500  0.34237100  1
  Mg  Mg39  1  0.18144200  0.32109400  0.34762900  1
  Mg  Mg40  1  0.91533800  0.75640500  0.30998300  1
  Mg  Mg41  1  0.08466200  0.93191400  0.25501700  1
  Mg  Mg42  1  0.61669600  0.24184600  0.27567900  1
  Mg  Mg43  1  0.38330400  0.44647300  0.28932100  1
  Mg  Mg44  1  0.55549200  0.73648400  0.30865500  1
  Mg  Mg45  1  0.44450800  0.95183500  0.25634500  1
  Mg  Mg46  1  0.99788700  0.48984800  0.29221300  1
  Mg  Mg47  1  0.00211300  0.19847100  0.27278700  1
  Ir  Ir48  1  0.97167900  0.15251200  0.73639000  1
  Ir  Ir49  1  0.02832100  0.66080700  0.70361000  1
  Ir  Ir50  1  0.77047200  0.49807600  0.79269600  1
  Ir  Ir51  1  0.22952800  0.19024300  0.77230400  1
  Ir  Ir52  1  0.22952800  0.25286500  0.70968200  1
  Ir  Ir53  1  0.77047200  0.56045400  0.73031800  1
  Ir  Ir54  1  0.50000000  0.90666000  0.72000000  1
  Ir  Ir55  1  0.25697700  0.50172800  0.69300500  1
  Ir  Ir56  1  0.74302300  0.31159100  0.74699500  1
  Ir  Ir57  1  0.53311500  0.65198100  0.70302100  1
  Ir  Ir58  1  0.46688500  0.16133800  0.73697900  1
  Ir  Ir59  1  0.70409300  0.04359100  0.76460400  1
  Ir  Ir60  1  0.29590700  0.64472800  0.80039600  1
  Ir  Ir61  1  0.29590700  0.70321300  0.74191200  1
  Ir  Ir62  1  0.70409300  0.11010600  0.69808800  1
  Ir  Ir63  1  0.97167900  0.27751200  0.61139000  1
  Ir  Ir64  1  0.02832100  0.78580700  0.57861000  1
  Ir  Ir65  1  0.77047200  0.62307600  0.66769600  1
  Ir  Ir66  1  0.22952800  0.31524300  0.64730400  1
  Ir  Ir67  1  0.22952800  0.37786500  0.58468200  1
  Ir  Ir68  1  0.77047200  0.68545400  0.60531800  1
  Ir  Ir69  1  0.50000000  0.03166000  0.59500000  1
  Ir  Ir70  1  0.25697700  0.62672800  0.56800500  1
  Ir  Ir71  1  0.74302300  0.43659100  0.62199500  1
  Ir  Ir72  1  0.53311500  0.77698100  0.57802100  1
  Ir  Ir73  1  0.46688500  0.28633800  0.61197900  1
  Ir  Ir74  1  0.70409300  0.16859100  0.63960400  1
  Ir  Ir75  1  0.29590700  0.76972800  0.67539600  1
  Ir  Ir76  1  0.29590700  0.82821300  0.61691200  1
  Ir  Ir77  1  0.70409300  0.23510600  0.57308800  1
  Ir  Ir78  1  0.97167900  0.40251200  0.48639000  1
  Ir  Ir79  1  0.02832100  0.91080700  0.45361000  1
  Ir  Ir80  1  0.77047200  0.74807600  0.54269600  1
  Ir  Ir81  1  0.22952800  0.44024300  0.52230400  1
  Ir  Ir82  1  0.22952800  0.50286500  0.45968200  1
  Ir  Ir83  1  0.77047200  0.81045400  0.48031800  1
  Ir  Ir84  1  0.50000000  0.15666000  0.47000000  1
  Ir  Ir85  1  0.25697700  0.75172800  0.44300500  1
  Ir  Ir86  1  0.74302300  0.56159100  0.49699500  1
  Ir  Ir87  1  0.53311500  0.90198100  0.45302100  1
  Ir  Ir88  1  0.46688500  0.41133800  0.48697900  1
  Ir  Ir89  1  0.70409300  0.29359100  0.51460400  1
  Ir  Ir90  1  0.29590700  0.89472800  0.55039600  1
  Ir  Ir91  1  0.29590700  0.95321300  0.49191200  1
  Ir  Ir92  1  0.70409300  0.36010600  0.44808800  1
  Ir  Ir93  1  0.97167900  0.52751200  0.36139000  1
  Ir  Ir94  1  0.02832100  0.03580700  0.32861000  1
  Ir  Ir95  1  0.77047200  0.87307600  0.41769600  1
  Ir  Ir96  1  0.22952800  0.56524300  0.39730400  1
  Ir  Ir97  1  0.22952800  0.62786500  0.33468200  1
  Ir  Ir98  1  0.77047200  0.93545400  0.35531800  1
  Ir  Ir99  1  0.50000000  0.28166000  0.34500000  1
  Ir  Ir100  1  0.25697700  0.87672800  0.31800500  1
  Ir  Ir101  1  0.74302300  0.68659100  0.37199500  1
  Ir  Ir102  1  0.53311500  0.02698100  0.32802100  1
  Ir  Ir103  1  0.46688500  0.53633800  0.36197900  1
  Ir  Ir104  1  0.70409300  0.41859100  0.38960400  1
  Ir  Ir105  1  0.29590700  0.01972800  0.42539600  1
  Ir  Ir106  1  0.29590700  0.07821300  0.36691200  1
  Ir  Ir107  1  0.70409300  0.48510600  0.32308800  1
  Ir  Ir108  1  0.77047200  0.99807600  0.29269600  1
  Ir  Ir109  1  0.22952800  0.69024300  0.27230400  1
  Ir  Ir110  1  0.70409300  0.54359100  0.26460400  1
  Ir  Ir111  1  0.29590700  0.14472800  0.30039600  1
