# generated using pymatgen
data_Pm7Mg3
_symmetry_space_group_name_H-M   'P 1'
_cell_length_a   5.62611600
_cell_length_b   8.90561749
_cell_length_c   44.75229100
_cell_angle_alpha   91.16740536
_cell_angle_beta   90.00000000
_cell_angle_gamma   90.00000000
_symmetry_Int_Tables_number   1
_chemical_formula_structural   Pm7Mg3
_chemical_formula_sum   'Pm28 Mg12'
_cell_volume   2241.80503062
_cell_formula_units_Z   4
loop_
 _symmetry_equiv_pos_site_id
 _symmetry_equiv_pos_as_xyz
  1  'x, y, z'
loop_
 _atom_site_type_symbol
 _atom_site_label
 _atom_site_symmetry_multiplicity
 _atom_site_fract_x
 _atom_site_fract_y
 _atom_site_fract_z
 _atom_site_occupancy
  Pm  Pm0  1  0.75000000  0.67869500  0.72876200  1
  Pm  Pm1  1  0.75000000  0.28839300  0.75527100  1
  Pm  Pm2  1  0.25000000  0.01674100  0.74346000  1
  Pm  Pm3  1  0.25000000  0.40704300  0.71695100  1
  Pm  Pm4  1  0.75000000  0.76202800  0.64542900  1
  Pm  Pm5  1  0.75000000  0.37172600  0.67193800  1
  Pm  Pm6  1  0.25000000  0.10007400  0.66012700  1
  Pm  Pm7  1  0.25000000  0.49037600  0.63361800  1
  Pm  Pm8  1  0.75000000  0.84536100  0.56209600  1
  Pm  Pm9  1  0.75000000  0.45505900  0.58860400  1
  Pm  Pm10  1  0.25000000  0.18340700  0.57679300  1
  Pm  Pm11  1  0.25000000  0.57370900  0.55028500  1
  Pm  Pm12  1  0.75000000  0.92869500  0.47876200  1
  Pm  Pm13  1  0.75000000  0.53839300  0.50527100  1
  Pm  Pm14  1  0.25000000  0.26674100  0.49346000  1
  Pm  Pm15  1  0.25000000  0.65704300  0.46695100  1
  Pm  Pm16  1  0.75000000  0.01202800  0.39542900  1
  Pm  Pm17  1  0.75000000  0.62172600  0.42193800  1
  Pm  Pm18  1  0.25000000  0.35007400  0.41012700  1
  Pm  Pm19  1  0.25000000  0.74037600  0.38361800  1
  Pm  Pm20  1  0.75000000  0.09536100  0.31209600  1
  Pm  Pm21  1  0.75000000  0.70505900  0.33860400  1
  Pm  Pm22  1  0.25000000  0.43340700  0.32679300  1
  Pm  Pm23  1  0.25000000  0.82370900  0.30028500  1
  Pm  Pm24  1  0.75000000  0.17869500  0.22876200  1
  Pm  Pm25  1  0.75000000  0.78839300  0.25527100  1
  Pm  Pm26  1  0.25000000  0.51674100  0.24346000  1
  Pm  Pm27  1  0.25000000  0.90704300  0.21695100  1
  Mg  Mg28  1  0.75000000  0.02201200  0.70021100  1
  Mg  Mg29  1  0.25000000  0.75675700  0.68867800  1
  Mg  Mg30  1  0.75000000  0.10534600  0.61687800  1
  Mg  Mg31  1  0.25000000  0.84009000  0.60534500  1
  Mg  Mg32  1  0.75000000  0.18867900  0.53354400  1
  Mg  Mg33  1  0.25000000  0.92342300  0.52201100  1
  Mg  Mg34  1  0.75000000  0.27201200  0.45021100  1
  Mg  Mg35  1  0.25000000  0.00675700  0.43867800  1
  Mg  Mg36  1  0.75000000  0.35534600  0.36687800  1
  Mg  Mg37  1  0.25000000  0.09009000  0.35534500  1
  Mg  Mg38  1  0.75000000  0.43867900  0.28354400  1
  Mg  Mg39  1  0.25000000  0.17342300  0.27201100  1
