# generated using pymatgen
data_Mg28Ir55
_symmetry_space_group_name_H-M   'P 1'
_cell_length_a   5.21013629
_cell_length_b   9.93407682
_cell_length_c   44.06856100
_cell_angle_alpha   96.15496522
_cell_angle_beta   93.38895847
_cell_angle_gamma   74.79724947
_symmetry_Int_Tables_number   1
_chemical_formula_structural   Mg28Ir55
_chemical_formula_sum   'Mg28 Ir55'
_cell_volume   2187.24305336
_cell_formula_units_Z   1
loop_
 _symmetry_equiv_pos_site_id
 _symmetry_equiv_pos_as_xyz
  1  'x, y, z'
loop_
 _atom_site_type_symbol
 _atom_site_label
 _atom_site_symmetry_multiplicity
 _atom_site_fract_x
 _atom_site_fract_y
 _atom_site_fract_z
 _atom_site_occupancy
  Mg  Mg0  1  0.26184700  0.53329500  0.19945800  1
  Mg  Mg1  1  0.53457400  0.00299200  0.21461000  1
  Mg  Mg2  1  0.40296500  0.29911100  0.24751200  1
  Mg  Mg3  1  0.13023800  0.82941400  0.23236000  1
  Mg  Mg4  1  0.89821000  0.35147700  0.29036700  1
  Mg  Mg5  1  0.17093700  0.82117400  0.30551900  1
  Mg  Mg6  1  0.03932900  0.11729300  0.33842100  1
  Mg  Mg7  1  0.76660200  0.64759600  0.32326900  1
  Mg  Mg8  1  0.53457400  0.16965800  0.38127600  1
  Mg  Mg9  1  0.80730100  0.63935500  0.39642800  1
  Mg  Mg10  1  0.67569200  0.93547500  0.42933000  1
  Mg  Mg11  1  0.40296500  0.46577800  0.41417800  1
  Mg  Mg12  1  0.17093700  0.98784000  0.47218500  1
  Mg  Mg13  1  0.44366500  0.45753700  0.48733700  1
  Mg  Mg14  1  0.31205600  0.75365700  0.52023900  1
  Mg  Mg15  1  0.03932900  0.28396000  0.50508700  1
  Mg  Mg16  1  0.80730100  0.80602200  0.56309400  1
  Mg  Mg17  1  0.08002800  0.27571900  0.57824600  1
  Mg  Mg18  1  0.94842000  0.57183800  0.61114800  1
  Mg  Mg19  1  0.67569200  0.10214100  0.59599700  1
  Mg  Mg20  1  0.44366500  0.62420400  0.65400300  1
  Mg  Mg21  1  0.71639200  0.09390100  0.66915500  1
  Mg  Mg22  1  0.58478300  0.39002000  0.70205700  1
  Mg  Mg23  1  0.31205600  0.92032300  0.68690600  1
  Mg  Mg24  1  0.08002800  0.44238600  0.74491300  1
  Mg  Mg25  1  0.35275600  0.91208300  0.76006400  1
  Mg  Mg26  1  0.22114700  0.20820200  0.79296600  1
  Mg  Mg27  1  0.94842000  0.73850500  0.77781500  1
  Ir  Ir28  1  0.83240600  0.41620300  0.22348500  1
  Ir  Ir29  1  0.65058800  0.82529400  0.26893900  1
  Ir  Ir30  1  0.69465100  0.68320900  0.21498200  1
  Ir  Ir31  1  0.64224100  0.24288800  0.18514200  1
  Ir  Ir32  1  0.15754300  0.24288800  0.18514200  1
  Ir  Ir33  1  0.50726800  0.58951800  0.26182700  1
  Ir  Ir34  1  0.02257100  0.58951800  0.26182700  1
  Ir  Ir35  1  0.97016100  0.14919700  0.23198800  1
  Ir  Ir36  1  0.46877000  0.23438500  0.31439400  1
  Ir  Ir37  1  0.28695100  0.64347600  0.35984800  1
  Ir  Ir38  1  0.33101500  0.50139100  0.30589100  1
  Ir  Ir39  1  0.27860400  0.06107000  0.27605100  1
  Ir  Ir40  1  0.79390700  0.06107000  0.27605100  1
  Ir  Ir41  1  0.14363200  0.40770000  0.35273600  1
  Ir  Ir42  1  0.65893500  0.40770000  0.35273600  1
  Ir  Ir43  1  0.60652400  0.96737800  0.32289700  1
  Ir  Ir44  1  0.10513300  0.05256700  0.40530300  1
  Ir  Ir45  1  0.92331500  0.46165700  0.45075800  1
  Ir  Ir46  1  0.96737800  0.31957300  0.39680000  1
  Ir  Ir47  1  0.91496800  0.87925200  0.36696100  1
  Ir  Ir48  1  0.43027100  0.87925200  0.36696100  1
  Ir  Ir49  1  0.77999600  0.22588200  0.44364600  1
  Ir  Ir50  1  0.29529800  0.22588200  0.44364600  1
  Ir  Ir51  1  0.24288800  0.78556000  0.41380600  1
  Ir  Ir52  1  0.74149700  0.87074800  0.49621200  1
  Ir  Ir53  1  0.55967900  0.27983900  0.54166700  1
  Ir  Ir54  1  0.60374200  0.13775500  0.48770900  1
  Ir  Ir55  1  0.55133200  0.69743300  0.45787000  1
  Ir  Ir56  1  0.06663400  0.69743300  0.45787000  1
  Ir  Ir57  1  0.41635900  0.04406300  0.53455500  1
  Ir  Ir58  1  0.93166200  0.04406300  0.53455500  1
  Ir  Ir59  1  0.87925200  0.60374200  0.50471500  1
  Ir  Ir60  1  0.37786000  0.68893000  0.58712100  1
  Ir  Ir61  1  0.19604200  0.09802100  0.63257600  1
  Ir  Ir62  1  0.24010600  0.95593700  0.57861800  1
  Ir  Ir63  1  0.18769500  0.51561500  0.54877900  1
  Ir  Ir64  1  0.70299800  0.51561500  0.54877900  1
  Ir  Ir65  1  0.05272300  0.86224500  0.62546400  1
  Ir  Ir66  1  0.56802600  0.86224500  0.62546400  1
  Ir  Ir67  1  0.51561500  0.42192400  0.59562400  1
  Ir  Ir68  1  0.01422400  0.50711200  0.67803000  1
  Ir  Ir69  1  0.83240600  0.91620300  0.72348500  1
  Ir  Ir70  1  0.87646900  0.77411800  0.66952700  1
  Ir  Ir71  1  0.82405900  0.33379700  0.63968800  1
  Ir  Ir72  1  0.33936200  0.33379700  0.63968800  1
  Ir  Ir73  1  0.68908700  0.68042700  0.71637300  1
  Ir  Ir74  1  0.20438900  0.68042700  0.71637300  1
  Ir  Ir75  1  0.15197900  0.24010600  0.68653300  1
  Ir  Ir76  1  0.65058800  0.32529400  0.76893900  1
  Ir  Ir77  1  0.51283300  0.59230000  0.76043600  1
  Ir  Ir78  1  0.46042300  0.15197900  0.73059700  1
  Ir  Ir79  1  0.97572500  0.15197900  0.73059700  1
  Ir  Ir80  1  0.32545000  0.49860900  0.80728200  1
  Ir  Ir81  1  0.84075300  0.49860900  0.80728200  1
  Ir  Ir82  1  0.78834300  0.05828700  0.77744300  1
