# generated using pymatgen
data_Mg39Hg23
_symmetry_space_group_name_H-M   'P 1'
_cell_length_a   10.23075603
_cell_length_b   10.23075545
_cell_length_c   44.68034300
_cell_angle_alpha   95.12420684
_cell_angle_beta   84.87579346
_cell_angle_gamma   90.69651047
_symmetry_Int_Tables_number   1
_chemical_formula_structural   Mg39Hg23
_chemical_formula_sum   'Mg78 Hg46'
_cell_volume   4639.27093619
_cell_formula_units_Z   2
loop_
 _symmetry_equiv_pos_site_id
 _symmetry_equiv_pos_as_xyz
  1  'x, y, z'
loop_
 _atom_site_type_symbol
 _atom_site_label
 _atom_site_symmetry_multiplicity
 _atom_site_fract_x
 _atom_site_fract_y
 _atom_site_fract_z
 _atom_site_occupancy
  Mg  Mg0  1  0.12723100  0.12070100  0.22099500  1
  Mg  Mg1  1  0.37643500  0.87149600  0.22131300  1
  Mg  Mg2  1  0.80174000  0.19826000  0.20160500  1
  Mg  Mg3  1  0.45399400  0.54600600  0.24070300  1
  Mg  Mg4  1  0.87929900  0.87276900  0.22099500  1
  Mg  Mg5  1  0.12850400  0.62356500  0.22131300  1
  Mg  Mg6  1  0.46120000  0.20546600  0.22115400  1
  Mg  Mg7  1  0.94838000  0.38495300  0.25961500  1
  Mg  Mg8  1  0.79453400  0.53880000  0.22115400  1
  Mg  Mg9  1  0.61504700  0.05162000  0.25961500  1
  Mg  Mg10  1  0.43492300  0.81300800  0.29791800  1
  Mg  Mg11  1  0.68412700  0.56380400  0.29823600  1
  Mg  Mg12  1  0.10943200  0.89056800  0.27852800  1
  Mg  Mg13  1  0.76168700  0.23831300  0.31762600  1
  Mg  Mg14  1  0.18699200  0.56507700  0.29791800  1
  Mg  Mg15  1  0.43619600  0.31587300  0.29823600  1
  Mg  Mg16  1  0.76889300  0.89777400  0.29807700  1
  Mg  Mg17  1  0.25607200  0.07726100  0.33653800  1
  Mg  Mg18  1  0.10222600  0.23110700  0.29807700  1
  Mg  Mg19  1  0.92273900  0.74392800  0.33653800  1
  Mg  Mg20  1  0.74261500  0.50531600  0.37484100  1
  Mg  Mg21  1  0.99181900  0.25611200  0.37515900  1
  Mg  Mg22  1  0.41712400  0.58287600  0.35545100  1
  Mg  Mg23  1  0.06937900  0.93062100  0.39454900  1
  Mg  Mg24  1  0.49468400  0.25738500  0.37484100  1
  Mg  Mg25  1  0.74388800  0.00818100  0.37515900  1
  Mg  Mg26  1  0.07658500  0.59008200  0.37500000  1
  Mg  Mg27  1  0.56376500  0.76956900  0.41346200  1
  Mg  Mg28  1  0.40991800  0.92341500  0.37500000  1
  Mg  Mg29  1  0.23043100  0.43623500  0.41346200  1
  Mg  Mg30  1  0.05030700  0.19762400  0.45176400  1
  Mg  Mg31  1  0.29951200  0.94841900  0.45208200  1
  Mg  Mg32  1  0.72481700  0.27518300  0.43237400  1
  Mg  Mg33  1  0.37707100  0.62292900  0.47147200  1
  Mg  Mg34  1  0.80237600  0.94969300  0.45176400  1
  Mg  Mg35  1  0.05158100  0.70048800  0.45208200  1
  Mg  Mg36  1  0.38427700  0.28238900  0.45192300  1
  Mg  Mg37  1  0.87145700  0.46187700  0.49038500  1
  Mg  Mg38  1  0.71761100  0.61572300  0.45192300  1
  Mg  Mg39  1  0.53812300  0.12854300  0.49038500  1
  Mg  Mg40  1  0.35800000  0.88993100  0.52868700  1
  Mg  Mg41  1  0.60720400  0.64072700  0.52900500  1
  Mg  Mg42  1  0.03250900  0.96749100  0.50929700  1
  Mg  Mg43  1  0.68476400  0.31523600  0.54839500  1
  Mg  Mg44  1  0.11006900  0.64200000  0.52868700  1
  Mg  Mg45  1  0.35927300  0.39279600  0.52900500  1
  Mg  Mg46  1  0.69197000  0.97469700  0.52884600  1
  Mg  Mg47  1  0.17914900  0.15418400  0.56730800  1
  Mg  Mg48  1  0.02530300  0.30803000  0.52884600  1
  Mg  Mg49  1  0.84581600  0.82085100  0.56730800  1
  Mg  Mg50  1  0.66569200  0.58223900  0.60561000  1
  Mg  Mg51  1  0.91489600  0.33303500  0.60592800  1
  Mg  Mg52  1  0.34020100  0.65979900  0.58622000  1
  Mg  Mg53  1  0.99245600  0.00754400  0.62531800  1
  Mg  Mg54  1  0.41776100  0.33430800  0.60561000  1
  Mg  Mg55  1  0.66696500  0.08510400  0.60592800  1
  Mg  Mg56  1  0.99966200  0.66700500  0.60576900  1
  Mg  Mg57  1  0.48684100  0.84649200  0.64423100  1
  Mg  Mg58  1  0.33299500  0.00033800  0.60576900  1
  Mg  Mg59  1  0.15350800  0.51315900  0.64423100  1
  Mg  Mg60  1  0.97338400  0.27454700  0.68253300  1
  Mg  Mg61  1  0.22258900  0.02534300  0.68285100  1
  Mg  Mg62  1  0.64789400  0.35210600  0.66314300  1
  Mg  Mg63  1  0.30014800  0.69985200  0.70224100  1
  Mg  Mg64  1  0.72545300  0.02661600  0.68253300  1
  Mg  Mg65  1  0.97465700  0.77741100  0.68285100  1
  Mg  Mg66  1  0.30735400  0.35931200  0.68269200  1
  Mg  Mg67  1  0.79453400  0.53880000  0.72115400  1
  Mg  Mg68  1  0.64068800  0.69264600  0.68269200  1
  Mg  Mg69  1  0.46120000  0.20546600  0.72115400  1
  Mg  Mg70  1  0.28107700  0.96685400  0.75945600  1
  Mg  Mg71  1  0.53028100  0.71765000  0.75977500  1
  Mg  Mg72  1  0.95558600  0.04441400  0.74006600  1
  Mg  Mg73  1  0.60784100  0.39215900  0.77916400  1
  Mg  Mg74  1  0.03314600  0.71892300  0.75945600  1
  Mg  Mg75  1  0.28235000  0.46971900  0.75977500  1
  Mg  Mg76  1  0.61504700  0.05162000  0.75961500  1
  Mg  Mg77  1  0.94838000  0.38495300  0.75961500  1
  Hg  Hg78  1  0.23875300  0.37162600  0.24887500  1
  Hg  Hg79  1  0.62736000  0.98301900  0.19343200  1
  Hg  Hg80  1  0.66233700  0.33766300  0.25736600  1
  Hg  Hg81  1  0.90109000  0.09891000  0.26186500  1
  Hg  Hg82  1  0.62837400  0.76124700  0.24887500  1
  Hg  Hg83  1  0.01698100  0.37264000  0.19343200  1
  Hg  Hg84  1  0.54644500  0.06393400  0.32579800  1
  Hg  Hg85  1  0.93505200  0.67532600  0.27035500  1
  Hg  Hg86  1  0.97002900  0.02997100  0.33428900  1
  Hg  Hg87  1  0.20878200  0.79121800  0.33878800  1
  Hg  Hg88  1  0.93606600  0.45355500  0.32579800  1
  Hg  Hg89  1  0.32467400  0.06494800  0.27035500  1
  Hg  Hg90  1  0.85413700  0.75624100  0.40272100  1
  Hg  Hg91  1  0.24274500  0.36763400  0.34727900  1
  Hg  Hg92  1  0.27772100  0.72227900  0.41121200  1
  Hg  Hg93  1  0.51647400  0.48352600  0.41571100  1
  Hg  Hg94  1  0.24375900  0.14586300  0.40272100  1
  Hg  Hg95  1  0.63236600  0.75725500  0.34727900  1
  Hg  Hg96  1  0.16183000  0.44854900  0.47964500  1
  Hg  Hg97  1  0.55043700  0.05994200  0.42420200  1
  Hg  Hg98  1  0.58541400  0.41458600  0.48813500  1
  Hg  Hg99  1  0.82416700  0.17583300  0.49263400  1
  Hg  Hg100  1  0.55145100  0.83817000  0.47964500  1
  Hg  Hg101  1  0.94005800  0.44956300  0.42420200  1
  Hg  Hg102  1  0.46952200  0.14085700  0.55656800  1
  Hg  Hg103  1  0.85812900  0.75224900  0.50112500  1
  Hg  Hg104  1  0.89310600  0.10689400  0.56505800  1
  Hg  Hg105  1  0.13185900  0.86814100  0.56955700  1
  Hg  Hg106  1  0.85914300  0.53047800  0.55656800  1
  Hg  Hg107  1  0.24775100  0.14187100  0.50112500  1
  Hg  Hg108  1  0.77721400  0.83316400  0.63349100  1
  Hg  Hg109  1  0.16582200  0.44455700  0.57804800  1
  Hg  Hg110  1  0.20079800  0.79920200  0.64198100  1
  Hg  Hg111  1  0.43955100  0.56044900  0.64648000  1
  Hg  Hg112  1  0.16683600  0.22278600  0.63349100  1
  Hg  Hg113  1  0.55544300  0.83417800  0.57804800  1
  Hg  Hg114  1  0.08490700  0.52547200  0.71041400  1
  Hg  Hg115  1  0.47351400  0.13686500  0.65497100  1
  Hg  Hg116  1  0.50849100  0.49150900  0.71890400  1
  Hg  Hg117  1  0.74724400  0.25275600  0.72340300  1
  Hg  Hg118  1  0.47452800  0.91509300  0.71041400  1
  Hg  Hg119  1  0.86313500  0.52648600  0.65497100  1
  Hg  Hg120  1  0.39259900  0.21778000  0.78733700  1
  Hg  Hg121  1  0.78120600  0.82917300  0.73189400  1
  Hg  Hg122  1  0.78222000  0.60740100  0.78733700  1
  Hg  Hg123  1  0.17082700  0.21879400  0.73189400  1
