# generated using pymatgen
data_Mg5In2
_symmetry_space_group_name_H-M   'P 1'
_cell_length_a   6.31272300
_cell_length_b   14.66298600
_cell_length_c   49.73402400
_cell_angle_alpha   90.00000000
_cell_angle_beta   90.00000000
_cell_angle_gamma   90.00000000
_symmetry_Int_Tables_number   1
_chemical_formula_structural   Mg5In2
_chemical_formula_sum   'Mg80 In32'
_cell_volume   4603.54881392
_cell_formula_units_Z   16
loop_
 _symmetry_equiv_pos_site_id
 _symmetry_equiv_pos_as_xyz
  1  'x, y, z'
loop_
 _atom_site_type_symbol
 _atom_site_label
 _atom_site_symmetry_multiplicity
 _atom_site_fract_x
 _atom_site_fract_y
 _atom_site_fract_z
 _atom_site_occupancy
  Mg  Mg0  1  0.00000000  0.91492400  0.29779700  1
  Mg  Mg1  1  0.50000000  0.58507600  0.27363200  1
  Mg  Mg2  1  0.00000000  0.58507600  0.22636800  1
  Mg  Mg3  1  0.50000000  0.91492400  0.34506000  1
  Mg  Mg4  1  0.75000000  0.00000000  0.25000000  1
  Mg  Mg5  1  0.25000000  0.00000000  0.25000000  1
  Mg  Mg6  1  0.25000000  0.73656800  0.32142900  1
  Mg  Mg7  1  0.75000000  0.76343200  0.25000000  1
  Mg  Mg8  1  0.25000000  0.76343200  0.25000000  1
  Mg  Mg9  1  0.75000000  0.73656800  0.32142900  1
  Mg  Mg10  1  0.50000000  0.41492400  0.22636800  1
  Mg  Mg11  1  0.00000000  0.08507600  0.34506000  1
  Mg  Mg12  1  0.50000000  0.08507600  0.29779700  1
  Mg  Mg13  1  0.00000000  0.41492400  0.27363200  1
  Mg  Mg14  1  0.25000000  0.50000000  0.32142900  1
  Mg  Mg15  1  0.75000000  0.50000000  0.32142900  1
  Mg  Mg16  1  0.75000000  0.23656800  0.25000000  1
  Mg  Mg17  1  0.25000000  0.26343200  0.32142900  1
  Mg  Mg18  1  0.75000000  0.26343200  0.32142900  1
  Mg  Mg19  1  0.25000000  0.23656800  0.25000000  1
  Mg  Mg20  1  0.00000000  0.91492400  0.44065400  1
  Mg  Mg21  1  0.50000000  0.58507600  0.41648900  1
  Mg  Mg22  1  0.00000000  0.58507600  0.36922500  1
  Mg  Mg23  1  0.50000000  0.91492400  0.48791700  1
  Mg  Mg24  1  0.75000000  0.00000000  0.39285700  1
  Mg  Mg25  1  0.25000000  0.00000000  0.39285700  1
  Mg  Mg26  1  0.25000000  0.73656800  0.46428600  1
  Mg  Mg27  1  0.75000000  0.76343200  0.39285700  1
  Mg  Mg28  1  0.25000000  0.76343200  0.39285700  1
  Mg  Mg29  1  0.75000000  0.73656800  0.46428600  1
  Mg  Mg30  1  0.50000000  0.41492400  0.36922500  1
  Mg  Mg31  1  0.00000000  0.08507600  0.48791700  1
  Mg  Mg32  1  0.50000000  0.08507600  0.44065400  1
  Mg  Mg33  1  0.00000000  0.41492400  0.41648900  1
  Mg  Mg34  1  0.25000000  0.50000000  0.46428600  1
  Mg  Mg35  1  0.75000000  0.50000000  0.46428600  1
  Mg  Mg36  1  0.75000000  0.23656800  0.39285700  1
  Mg  Mg37  1  0.25000000  0.26343200  0.46428600  1
  Mg  Mg38  1  0.75000000  0.26343200  0.46428600  1
  Mg  Mg39  1  0.25000000  0.23656800  0.39285700  1
  Mg  Mg40  1  0.00000000  0.91492400  0.58351100  1
  Mg  Mg41  1  0.50000000  0.58507600  0.55934600  1
  Mg  Mg42  1  0.00000000  0.58507600  0.51208300  1
  Mg  Mg43  1  0.50000000  0.91492400  0.63077500  1
  Mg  Mg44  1  0.75000000  0.00000000  0.53571400  1
  Mg  Mg45  1  0.25000000  0.00000000  0.53571400  1
  Mg  Mg46  1  0.25000000  0.73656800  0.60714300  1
  Mg  Mg47  1  0.75000000  0.76343200  0.53571400  1
  Mg  Mg48  1  0.25000000  0.76343200  0.53571400  1
  Mg  Mg49  1  0.75000000  0.73656800  0.60714300  1
  Mg  Mg50  1  0.50000000  0.41492400  0.51208300  1
  Mg  Mg51  1  0.00000000  0.08507600  0.63077500  1
  Mg  Mg52  1  0.50000000  0.08507600  0.58351100  1
  Mg  Mg53  1  0.00000000  0.41492400  0.55934600  1
  Mg  Mg54  1  0.25000000  0.50000000  0.60714300  1
  Mg  Mg55  1  0.75000000  0.50000000  0.60714300  1
  Mg  Mg56  1  0.75000000  0.23656800  0.53571400  1
  Mg  Mg57  1  0.25000000  0.26343200  0.60714300  1
  Mg  Mg58  1  0.75000000  0.26343200  0.60714300  1
  Mg  Mg59  1  0.25000000  0.23656800  0.53571400  1
  Mg  Mg60  1  0.00000000  0.91492400  0.72636800  1
  Mg  Mg61  1  0.50000000  0.58507600  0.70220300  1
  Mg  Mg62  1  0.00000000  0.58507600  0.65494000  1
  Mg  Mg63  1  0.50000000  0.91492400  0.77363200  1
  Mg  Mg64  1  0.75000000  0.00000000  0.67857100  1
  Mg  Mg65  1  0.25000000  0.00000000  0.67857100  1
  Mg  Mg66  1  0.25000000  0.73656800  0.75000000  1
  Mg  Mg67  1  0.75000000  0.76343200  0.67857100  1
  Mg  Mg68  1  0.25000000  0.76343200  0.67857100  1
  Mg  Mg69  1  0.75000000  0.73656800  0.75000000  1
  Mg  Mg70  1  0.50000000  0.41492400  0.65494000  1
  Mg  Mg71  1  0.00000000  0.08507600  0.77363200  1
  Mg  Mg72  1  0.50000000  0.08507600  0.72636800  1
  Mg  Mg73  1  0.00000000  0.41492400  0.70220300  1
  Mg  Mg74  1  0.25000000  0.50000000  0.75000000  1
  Mg  Mg75  1  0.75000000  0.50000000  0.75000000  1
  Mg  Mg76  1  0.75000000  0.23656800  0.67857100  1
  Mg  Mg77  1  0.25000000  0.26343200  0.75000000  1
  Mg  Mg78  1  0.75000000  0.26343200  0.75000000  1
  Mg  Mg79  1  0.25000000  0.23656800  0.67857100  1
  In  In80  1  0.00000000  0.87796300  0.35554700  1
  In  In81  1  0.50000000  0.62203700  0.21588200  1
  In  In82  1  0.00000000  0.62203700  0.28411800  1
  In  In83  1  0.50000000  0.87796300  0.28731000  1
  In  In84  1  0.50000000  0.37796300  0.28411800  1
  In  In85  1  1.00000000  0.12203700  0.28731000  1
  In  In86  1  0.50000000  0.12203700  0.35554700  1
  In  In87  1  0.00000000  0.37796300  0.21588200  1
  In  In88  1  0.00000000  0.87796300  0.49840400  1
  In  In89  1  0.50000000  0.62203700  0.35873900  1
  In  In90  1  0.00000000  0.62203700  0.42697500  1
  In  In91  1  0.50000000  0.87796300  0.43016700  1
  In  In92  1  0.50000000  0.37796300  0.42697500  1
  In  In93  1  1.00000000  0.12203700  0.43016700  1
  In  In94  1  0.50000000  0.12203700  0.49840400  1
  In  In95  1  0.00000000  0.37796300  0.35873900  1
  In  In96  1  0.00000000  0.87796300  0.64126100  1
  In  In97  1  0.50000000  0.62203700  0.50159600  1
  In  In98  1  0.00000000  0.62203700  0.56983300  1
  In  In99  1  0.50000000  0.87796300  0.57302500  1
  In  In100  1  0.50000000  0.37796300  0.56983300  1
  In  In101  1  1.00000000  0.12203700  0.57302500  1
  In  In102  1  0.50000000  0.12203700  0.64126100  1
  In  In103  1  1.00000000  0.37796300  0.50159600  1
  In  In104  1  0.00000000  0.87796300  0.78411800  1
  In  In105  1  0.50000000  0.62203700  0.64445300  1
  In  In106  1  0.00000000  0.62203700  0.71269000  1
  In  In107  1  0.50000000  0.87796300  0.71588200  1
  In  In108  1  0.50000000  0.37796300  0.71269000  1
  In  In109  1  0.00000000  0.12203700  0.71588200  1
  In  In110  1  0.50000000  0.12203700  0.78411800  1
  In  In111  1  0.00000000  0.37796300  0.64445300  1
