# generated using pymatgen
data_Yb12Mg7
_symmetry_space_group_name_H-M   'P 1'
_cell_length_a   5.87266200
_cell_length_b   9.47017938
_cell_length_c   44.25669700
_cell_angle_alpha   90.64677827
_cell_angle_beta   90.00000000
_cell_angle_gamma   90.00000000
_symmetry_Int_Tables_number   1
_chemical_formula_structural   Yb12Mg7
_chemical_formula_sum   'Yb24 Mg14'
_cell_volume   2461.18657757
_cell_formula_units_Z   2
loop_
 _symmetry_equiv_pos_site_id
 _symmetry_equiv_pos_as_xyz
  1  'x, y, z'
loop_
 _atom_site_type_symbol
 _atom_site_label
 _atom_site_symmetry_multiplicity
 _atom_site_fract_x
 _atom_site_fract_y
 _atom_site_fract_z
 _atom_site_occupancy
  Yb  Yb0  1  0.75000000  0.85747500  0.67286300  1
  Yb  Yb1  1  0.75000000  0.26530900  0.69861000  1
  Yb  Yb2  1  0.25000000  0.50363600  0.68824800  1
  Yb  Yb3  1  0.25000000  0.09580200  0.66250100  1
  Yb  Yb4  1  0.75000000  0.77414200  0.58953000  1
  Yb  Yb5  1  0.75000000  0.18197600  0.61527600  1
  Yb  Yb6  1  0.25000000  0.42030300  0.60491400  1
  Yb  Yb7  1  0.25000000  0.01246900  0.57916800  1
  Yb  Yb8  1  0.75000000  0.69080800  0.50619700  1
  Yb  Yb9  1  0.75000000  0.09864200  0.53194300  1
  Yb  Yb10  1  0.25000000  0.33696900  0.52158100  1
  Yb  Yb11  1  0.25000000  0.92913500  0.49583500  1
  Yb  Yb12  1  0.75000000  0.60747500  0.42286300  1
  Yb  Yb13  1  0.75000000  0.01530900  0.44861000  1
  Yb  Yb14  1  0.25000000  0.25363600  0.43824800  1
  Yb  Yb15  1  0.25000000  0.84580200  0.41250100  1
  Yb  Yb16  1  0.75000000  0.52414200  0.33953000  1
  Yb  Yb17  1  0.75000000  0.93197600  0.36527600  1
  Yb  Yb18  1  0.25000000  0.17030300  0.35491400  1
  Yb  Yb19  1  0.25000000  0.76246900  0.32916800  1
  Yb  Yb20  1  0.75000000  0.44080800  0.25619700  1
  Yb  Yb21  1  0.75000000  0.84864200  0.28194300  1
  Yb  Yb22  1  0.25000000  0.08696900  0.27158100  1
  Yb  Yb23  1  0.25000000  0.67913500  0.24583500  1
  Mg  Mg24  1  0.75000000  0.60819500  0.72718000  1
  Mg  Mg25  1  0.25000000  0.83625000  0.71726500  1
  Mg  Mg26  1  0.75000000  0.52486200  0.64384700  1
  Mg  Mg27  1  0.25000000  0.75291600  0.63393100  1
  Mg  Mg28  1  0.75000000  0.44152800  0.56051300  1
  Mg  Mg29  1  0.25000000  0.66958300  0.55059800  1
  Mg  Mg30  1  0.75000000  0.35819500  0.47718000  1
  Mg  Mg31  1  0.25000000  0.58625000  0.46726500  1
  Mg  Mg32  1  0.75000000  0.27486200  0.39384700  1
  Mg  Mg33  1  0.25000000  0.50291600  0.38393100  1
  Mg  Mg34  1  0.75000000  0.19152800  0.31051300  1
  Mg  Mg35  1  0.25000000  0.41958300  0.30059800  1
  Mg  Mg36  1  0.75000000  0.10819500  0.22718000  1
  Mg  Mg37  1  0.25000000  0.33625000  0.21726500  1
