# generated using pymatgen
data_Mg4Ir
_symmetry_space_group_name_H-M   'P 1'
_cell_length_a   8.24582600
_cell_length_b   9.82944229
_cell_length_c   49.03777500
_cell_angle_alpha   90.00000000
_cell_angle_beta   90.00000000
_cell_angle_gamma   106.23813566
_symmetry_Int_Tables_number   1
_chemical_formula_structural   Mg4Ir
_chemical_formula_sum   'Mg96 Ir24'
_cell_volume   3816.04764390
_cell_formula_units_Z   24
loop_
 _symmetry_equiv_pos_site_id
 _symmetry_equiv_pos_as_xyz
  1  'x, y, z'
loop_
 _atom_site_type_symbol
 _atom_site_label
 _atom_site_symmetry_multiplicity
 _atom_site_fract_x
 _atom_site_fract_y
 _atom_site_fract_z
 _atom_site_occupancy
  Mg  Mg0  1  0.82112700  0.96338100  0.77083300  1
  Mg  Mg1  1  0.57112700  0.21338100  0.68750000  1
  Mg  Mg2  1  0.32112700  0.46338100  0.77083300  1
  Mg  Mg3  1  0.32112700  0.96338100  0.77083300  1
  Mg  Mg4  1  0.07112700  0.21338100  0.68750000  1
  Mg  Mg5  1  0.82112700  0.46338100  0.77083300  1
  Mg  Mg6  1  0.00485600  0.26456800  0.74874300  1
  Mg  Mg7  1  0.32112700  0.21338100  0.73168100  1
  Mg  Mg8  1  0.63739800  0.16219400  0.74874300  1
  Mg  Mg9  1  0.63739800  0.66219400  0.79292400  1
  Mg  Mg10  1  0.32112700  0.71338100  0.80998600  1
  Mg  Mg11  1  0.00485600  0.76456800  0.79292400  1
  Mg  Mg12  1  0.82112700  0.71338100  0.68750000  1
  Mg  Mg13  1  0.32112700  0.71338100  0.68750000  1
  Mg  Mg14  1  0.23721300  0.97561700  0.66885700  1
  Mg  Mg15  1  0.57813100  0.99837000  0.81978200  1
  Mg  Mg16  1  0.13406000  0.66615600  0.74052700  1
  Mg  Mg17  1  0.50819500  0.76060600  0.74052700  1
  Mg  Mg18  1  0.06412300  0.42839200  0.81978200  1
  Mg  Mg19  1  0.40504100  0.45114500  0.66885700  1
  Mg  Mg20  1  0.90504100  0.45114500  0.70614300  1
  Mg  Mg21  1  0.06412300  0.92839200  0.72188500  1
  Mg  Mg22  1  0.50819500  0.26060600  0.80113900  1
  Mg  Mg23  1  0.13406000  0.16615600  0.80113900  1
  Mg  Mg24  1  0.57813100  0.49837000  0.72188500  1
  Mg  Mg25  1  0.73721300  0.97561700  0.70614300  1
  Mg  Mg26  1  0.32112700  0.46338100  0.60416700  1
  Mg  Mg27  1  0.07112700  0.71338100  0.52083300  1
  Mg  Mg28  1  0.82112700  0.96338100  0.60416700  1
  Mg  Mg29  1  0.82112700  0.46338100  0.60416700  1
  Mg  Mg30  1  0.57112700  0.71338100  0.52083300  1
  Mg  Mg31  1  0.32112700  0.96338100  0.60416700  1
  Mg  Mg32  1  0.50485600  0.76456800  0.58207600  1
  Mg  Mg33  1  0.82112700  0.71338100  0.56501400  1
  Mg  Mg34  1  0.13739800  0.66219400  0.58207600  1
  Mg  Mg35  1  0.13739800  0.16219400  0.62625700  1
  Mg  Mg36  1  0.82112700  0.21338100  0.64331900  1
  Mg  Mg37  1  0.50485600  0.26456800  0.62625700  1
  Mg  Mg38  1  0.32112700  0.21338100  0.52083300  1
  Mg  Mg39  1  0.82112700  0.21338100  0.52083300  1
  Mg  Mg40  1  0.73721300  0.47561700  0.50219000  1
  Mg  Mg41  1  0.07813100  0.49837000  0.65311500  1
  Mg  Mg42  1  0.63406000  0.16615600  0.57386100  1
  Mg  Mg43  1  0.00819500  0.26060600  0.57386100  1
  Mg  Mg44  1  0.56412300  0.92839200  0.65311500  1
  Mg  Mg45  1  0.90504100  0.95114500  0.50219000  1
  Mg  Mg46  1  0.40504100  0.95114500  0.53947600  1
  Mg  Mg47  1  0.56412300  0.42839200  0.55521800  1
  Mg  Mg48  1  0.00819500  0.76060600  0.63447300  1
  Mg  Mg49  1  0.63406000  0.66615600  0.63447300  1
  Mg  Mg50  1  0.07813100  0.99837000  0.55521800  1
  Mg  Mg51  1  0.23721300  0.47561700  0.53947600  1
  Mg  Mg52  1  0.82112700  0.96338100  0.43750000  1
  Mg  Mg53  1  0.57112700  0.21338100  0.35416700  1
  Mg  Mg54  1  0.32112700  0.46338100  0.43750000  1
  Mg  Mg55  1  0.32112700  0.96338100  0.43750000  1
  Mg  Mg56  1  0.07112700  0.21338100  0.35416700  1
  Mg  Mg57  1  0.82112700  0.46338100  0.43750000  1
  Mg  Mg58  1  0.00485600  0.26456800  0.41541000  1
  Mg  Mg59  1  0.32112700  0.21338100  0.39834700  1
  Mg  Mg60  1  0.63739800  0.16219400  0.41541000  1
  Mg  Mg61  1  0.63739800  0.66219400  0.45959000  1
  Mg  Mg62  1  0.32112700  0.71338100  0.47665300  1
  Mg  Mg63  1  0.00485600  0.76456800  0.45959000  1
  Mg  Mg64  1  0.82112700  0.71338100  0.35416700  1
  Mg  Mg65  1  0.32112700  0.71338100  0.35416700  1
  Mg  Mg66  1  0.23721300  0.97561700  0.33552400  1
  Mg  Mg67  1  0.57813100  0.99837000  0.48644900  1
  Mg  Mg68  1  0.13406000  0.66615600  0.40719400  1
  Mg  Mg69  1  0.50819500  0.76060600  0.40719400  1
  Mg  Mg70  1  0.06412300  0.42839200  0.48644900  1
  Mg  Mg71  1  0.40504100  0.45114500  0.33552400  1
  Mg  Mg72  1  0.90504100  0.45114500  0.37281000  1
  Mg  Mg73  1  0.06412300  0.92839200  0.38855100  1
  Mg  Mg74  1  0.50819500  0.26060600  0.46780600  1
  Mg  Mg75  1  0.13406000  0.16615600  0.46780600  1
  Mg  Mg76  1  0.57813100  0.49837000  0.38855100  1
  Mg  Mg77  1  0.73721300  0.97561700  0.37281000  1
  Mg  Mg78  1  0.32112700  0.46338100  0.27083300  1
  Mg  Mg79  1  0.82112700  0.96338100  0.27083300  1
  Mg  Mg80  1  0.82112700  0.46338100  0.27083300  1
  Mg  Mg81  1  0.32112700  0.96338100  0.27083300  1
  Mg  Mg82  1  0.50485600  0.76456800  0.24874300  1
  Mg  Mg83  1  0.82112700  0.71338100  0.23168100  1
  Mg  Mg84  1  0.13739800  0.66219400  0.24874300  1
  Mg  Mg85  1  0.13739800  0.16219400  0.29292400  1
  Mg  Mg86  1  0.82112700  0.21338100  0.30998600  1
  Mg  Mg87  1  0.50485600  0.26456800  0.29292400  1
  Mg  Mg88  1  0.07813100  0.49837000  0.31978200  1
  Mg  Mg89  1  0.63406000  0.16615600  0.24052700  1
  Mg  Mg90  1  0.00819500  0.26060600  0.24052700  1
  Mg  Mg91  1  0.56412300  0.92839200  0.31978200  1
  Mg  Mg92  1  0.56412300  0.42839200  0.22188500  1
  Mg  Mg93  1  0.00819500  0.76060600  0.30113900  1
  Mg  Mg94  1  0.63406000  0.66615600  0.30113900  1
  Mg  Mg95  1  0.07813100  0.99837000  0.22188500  1
  Ir  Ir96  1  0.23480200  0.45440500  0.71627500  1
  Ir  Ir97  1  0.82112700  0.21338100  0.79661600  1
  Ir  Ir98  1  0.40745200  0.97235700  0.71627500  1
  Ir  Ir99  1  0.40745200  0.47235700  0.82539200  1
  Ir  Ir100  1  0.82112700  0.71338100  0.74505000  1
  Ir  Ir101  1  0.23480200  0.95440500  0.82539200  1
  Ir  Ir102  1  0.73480200  0.95440500  0.54960800  1
  Ir  Ir103  1  0.32112700  0.71338100  0.62995000  1
  Ir  Ir104  1  0.90745200  0.47235700  0.54960800  1
  Ir  Ir105  1  0.90745200  0.97235700  0.65872500  1
  Ir  Ir106  1  0.32112700  0.21338100  0.57838400  1
  Ir  Ir107  1  0.73480200  0.45440500  0.65872500  1
  Ir  Ir108  1  0.23480200  0.45440500  0.38294200  1
  Ir  Ir109  1  0.82112700  0.21338100  0.46328300  1
  Ir  Ir110  1  0.40745200  0.97235700  0.38294200  1
  Ir  Ir111  1  0.40745200  0.47235700  0.49205800  1
  Ir  Ir112  1  0.82112700  0.71338100  0.41171700  1
  Ir  Ir113  1  0.23480200  0.95440500  0.49205800  1
  Ir  Ir114  1  0.73480200  0.95440500  0.21627500  1
  Ir  Ir115  1  0.32112700  0.71338100  0.29661600  1
  Ir  Ir116  1  0.90745200  0.47235700  0.21627500  1
  Ir  Ir117  1  0.90745200  0.97235700  0.32539200  1
  Ir  Ir118  1  0.32112700  0.21338100  0.24505000  1
  Ir  Ir119  1  0.73480200  0.45440500  0.32539200  1
