# generated using pymatgen
data_Ba18Mg37
_symmetry_space_group_name_H-M   'P 1'
_cell_length_a   6.58888000
_cell_length_b   12.70238114
_cell_length_c   40.54514400
_cell_angle_alpha   85.48813798
_cell_angle_beta   90.00000000
_cell_angle_gamma   74.96814132
_symmetry_Int_Tables_number   1
_chemical_formula_structural   Ba18Mg37
_chemical_formula_sum   'Ba18 Mg37'
_cell_volume   3266.39809970
_cell_formula_units_Z   1
loop_
 _symmetry_equiv_pos_site_id
 _symmetry_equiv_pos_as_xyz
  1  'x, y, z'
loop_
 _atom_site_type_symbol
 _atom_site_label
 _atom_site_symmetry_multiplicity
 _atom_site_fract_x
 _atom_site_fract_y
 _atom_site_fract_z
 _atom_site_occupancy
  Ba  Ba0  1  0.49167000  0.32499800  0.24791600  1
  Ba  Ba1  1  0.98958300  0.32917100  0.30416700  1
  Ba  Ba2  1  0.84583600  0.61666500  0.35208300  1
  Ba  Ba3  1  0.11667000  0.07499800  0.37291600  1
  Ba  Ba4  1  0.26041700  0.78750400  0.32500000  1
  Ba  Ba5  1  0.61458300  0.07917100  0.42916700  1
  Ba  Ba6  1  0.47083600  0.36666500  0.47708300  1
  Ba  Ba7  1  0.74167000  0.82499800  0.49791600  1
  Ba  Ba8  1  0.88541700  0.53750400  0.45000000  1
  Ba  Ba9  1  0.23958300  0.82917100  0.55416700  1
  Ba  Ba10  1  0.09583600  0.11666500  0.60208300  1
  Ba  Ba11  1  0.36667000  0.57499800  0.62291600  1
  Ba  Ba12  1  0.51041700  0.28750400  0.57500000  1
  Ba  Ba13  1  0.86458300  0.57917100  0.67916700  1
  Ba  Ba14  1  0.72083600  0.86666500  0.72708300  1
  Ba  Ba15  1  0.99167000  0.32499800  0.74791600  1
  Ba  Ba16  1  0.13541700  0.03750400  0.70000000  1
  Ba  Ba17  1  0.48958300  0.32917100  0.80416700  1
  Mg  Mg18  1  0.10022600  0.59868400  0.26524200  1
  Mg  Mg19  1  0.60942700  0.59868400  0.26524200  1
  Mg  Mg20  1  0.87182600  0.05548400  0.28684200  1
  Mg  Mg21  1  0.74062600  0.82708400  0.27604200  1
  Mg  Mg22  1  0.38102700  0.05548400  0.28684200  1
  Mg  Mg23  1  0.68777600  0.93278400  0.34819200  1
  Mg  Mg24  1  0.72522600  0.34868400  0.39024200  1
  Mg  Mg25  1  0.23442700  0.34868400  0.39024200  1
  Mg  Mg26  1  0.49682600  0.80548400  0.41184200  1
  Mg  Mg27  1  0.55312600  0.20208400  0.33854200  1
  Mg  Mg28  1  0.36562600  0.57708400  0.40104200  1
  Mg  Mg29  1  0.41847700  0.47138400  0.32889200  1
  Mg  Mg30  1  0.00602700  0.80548400  0.41184200  1
  Mg  Mg31  1  0.31277600  0.68278400  0.47319200  1
  Mg  Mg32  1  0.35022600  0.09868400  0.51524200  1
  Mg  Mg33  1  0.85942700  0.09868400  0.51524200  1
  Mg  Mg34  1  0.12182600  0.55548400  0.53684200  1
  Mg  Mg35  1  0.17812600  0.95208400  0.46354200  1
  Mg  Mg36  1  0.99062600  0.32708400  0.52604200  1
  Mg  Mg37  1  0.04347700  0.22138400  0.45389200  1
  Mg  Mg38  1  0.63102700  0.55548400  0.53684200  1
  Mg  Mg39  1  0.93777600  0.43278400  0.59819200  1
  Mg  Mg40  1  0.97522600  0.84868400  0.64024200  1
  Mg  Mg41  1  0.48442700  0.84868400  0.64024200  1
  Mg  Mg42  1  0.74682600  0.30548400  0.66184200  1
  Mg  Mg43  1  0.80312600  0.70208400  0.58854200  1
  Mg  Mg44  1  0.61562600  0.07708400  0.65104200  1
  Mg  Mg45  1  0.66847700  0.97138400  0.57889200  1
  Mg  Mg46  1  0.25602700  0.30548400  0.66184200  1
  Mg  Mg47  1  0.56277600  0.18278400  0.72319200  1
  Mg  Mg48  1  0.60022600  0.59868400  0.76524200  1
  Mg  Mg49  1  0.10942700  0.59868400  0.76524200  1
  Mg  Mg50  1  0.37182600  0.05548400  0.78684200  1
  Mg  Mg51  1  0.42812600  0.45208400  0.71354200  1
  Mg  Mg52  1  0.24062600  0.82708400  0.77604200  1
  Mg  Mg53  1  0.29347700  0.72138400  0.70389200  1
  Mg  Mg54  1  0.88102700  0.05548400  0.78684200  1
