# generated using pymatgen
data_Mg13Ir19
_symmetry_space_group_name_H-M   'P 1'
_cell_length_a   5.24707521
_cell_length_b   9.72091511
_cell_length_c   42.67859400
_cell_angle_alpha   83.72935757
_cell_angle_beta   86.47569412
_cell_angle_gamma   74.34252486
_symmetry_Int_Tables_number   1
_chemical_formula_structural   Mg13Ir19
_chemical_formula_sum   'Mg26 Ir38'
_cell_volume   2082.39608329
_cell_formula_units_Z   2
loop_
 _symmetry_equiv_pos_site_id
 _symmetry_equiv_pos_as_xyz
  1  'x, y, z'
loop_
 _atom_site_type_symbol
 _atom_site_label
 _atom_site_symmetry_multiplicity
 _atom_site_fract_x
 _atom_site_fract_y
 _atom_site_fract_z
 _atom_site_occupancy
  Mg  Mg0  1  0.71986400  0.88733900  0.67293200  1
  Mg  Mg1  1  0.28013600  0.80066100  0.63906800  1
  Mg  Mg2  1  0.57770000  0.18817700  0.65642300  1
  Mg  Mg3  1  0.42230000  0.49982300  0.65557700  1
  Mg  Mg4  1  0.97896800  0.34977500  0.69228800  1
  Mg  Mg5  1  0.02103200  0.33822500  0.61971200  1
  Mg  Mg6  1  0.71986400  0.08733900  0.47293200  1
  Mg  Mg7  1  0.28013600  0.00066100  0.43906800  1
  Mg  Mg8  1  0.44543300  0.57647400  0.53266100  1
  Mg  Mg9  1  0.55456700  0.31152600  0.57933900  1
  Mg  Mg10  1  0.70924000  0.03661800  0.54490200  1
  Mg  Mg11  1  0.29076000  0.85138200  0.56709800  1
  Mg  Mg12  1  0.57770000  0.38817700  0.45642300  1
  Mg  Mg13  1  0.42230000  0.69982300  0.45557700  1
  Mg  Mg14  1  0.97896800  0.54977500  0.49228800  1
  Mg  Mg15  1  0.02103200  0.53822500  0.41971200  1
  Mg  Mg16  1  0.71986400  0.28733900  0.27293200  1
  Mg  Mg17  1  0.28013600  0.20066100  0.23906800  1
  Mg  Mg18  1  0.44543300  0.77647400  0.33266100  1
  Mg  Mg19  1  0.55456700  0.51152600  0.37933900  1
  Mg  Mg20  1  0.70924000  0.23661800  0.34490200  1
  Mg  Mg21  1  0.29076000  0.05138200  0.36709800  1
  Mg  Mg22  1  0.57770000  0.58817700  0.25642300  1
  Mg  Mg23  1  0.42230000  0.89982300  0.25557700  1
  Mg  Mg24  1  0.97896800  0.74977500  0.29228800  1
  Mg  Mg25  1  0.02103200  0.73822500  0.21971200  1
  Ir  Ir26  1  0.13112200  0.07609300  0.66166400  1
  Ir  Ir27  1  0.86887800  0.61190700  0.65033600  1
  Ir  Ir28  1  0.08254400  0.63398200  0.70190600  1
  Ir  Ir29  1  0.91745600  0.05401800  0.61009400  1
  Ir  Ir30  1  0.41843100  0.05401800  0.61009400  1
  Ir  Ir31  1  0.58156900  0.63398200  0.70190600  1
  Ir  Ir32  1  0.78403600  0.82732300  0.60460500  1
  Ir  Ir33  1  0.21596400  0.86067700  0.70739500  1
  Ir  Ir34  1  0.13112200  0.27609300  0.46166400  1
  Ir  Ir35  1  0.86887800  0.81190700  0.45033600  1
  Ir  Ir36  1  0.08254400  0.83398200  0.50190600  1
  Ir  Ir37  1  0.91745600  0.25401800  0.41009400  1
  Ir  Ir38  1  0.41843100  0.25401800  0.41009400  1
  Ir  Ir39  1  0.58156900  0.83398200  0.50190600  1
  Ir  Ir40  1  0.00000000  0.44400000  0.55600000  1
  Ir  Ir41  1  0.78403600  0.02732300  0.40460500  1
  Ir  Ir42  1  0.21596400  0.06067700  0.50739500  1
  Ir  Ir43  1  0.86417200  0.72228000  0.54937700  1
  Ir  Ir44  1  0.13582800  0.16572000  0.56262300  1
  Ir  Ir45  1  0.82470600  0.30328300  0.51518100  1
  Ir  Ir46  1  0.17529400  0.58471700  0.59681900  1
  Ir  Ir47  1  0.64317100  0.58471700  0.59681900  1
  Ir  Ir48  1  0.35682900  0.30328300  0.51518100  1
  Ir  Ir49  1  0.13112200  0.47609300  0.26166400  1
  Ir  Ir50  1  0.86887800  0.01190700  0.25033600  1
  Ir  Ir51  1  0.08254400  0.03398200  0.30190600  1
  Ir  Ir52  1  0.91745600  0.45401800  0.21009400  1
  Ir  Ir53  1  0.41843100  0.45401800  0.21009400  1
  Ir  Ir54  1  0.58156900  0.03398200  0.30190600  1
  Ir  Ir55  1  0.00000000  0.64400000  0.35600000  1
  Ir  Ir56  1  0.78403600  0.22732300  0.20460500  1
  Ir  Ir57  1  0.21596400  0.26067700  0.30739500  1
  Ir  Ir58  1  0.86417200  0.92228000  0.34937700  1
  Ir  Ir59  1  0.13582800  0.36572000  0.36262300  1
  Ir  Ir60  1  0.82470600  0.50328300  0.31518100  1
  Ir  Ir61  1  0.17529400  0.78471700  0.39681900  1
  Ir  Ir62  1  0.64317100  0.78471700  0.39681900  1
  Ir  Ir63  1  0.35682900  0.50328300  0.31518100  1
