# generated using pymatgen
data_Mg27Zn46
_symmetry_space_group_name_H-M   'P 1'
_cell_length_a   13.26606255
_cell_length_b   15.58232770
_cell_length_c   46.38065300
_cell_angle_alpha   94.29618326
_cell_angle_beta   88.49627591
_cell_angle_gamma   99.94210053
_symmetry_Int_Tables_number   1
_chemical_formula_structural   Mg27Zn46
_chemical_formula_sum   'Mg108 Zn184'
_cell_volume   9416.24935325
_cell_formula_units_Z   4
loop_
 _symmetry_equiv_pos_site_id
 _symmetry_equiv_pos_as_xyz
  1  'x, y, z'
loop_
 _atom_site_type_symbol
 _atom_site_label
 _atom_site_symmetry_multiplicity
 _atom_site_fract_x
 _atom_site_fract_y
 _atom_site_fract_z
 _atom_site_occupancy
  Mg  Mg0  1  0.65646300  0.80727700  0.29301700  1
  Mg  Mg1  1  0.97904100  0.62323100  0.29066700  1
  Mg  Mg2  1  0.52953200  0.27207000  0.28072100  1
  Mg  Mg3  1  0.82926600  0.90181100  0.25508100  1
  Mg  Mg4  1  0.94573100  0.57856700  0.22406200  1
  Mg  Mg5  1  0.47563800  0.93194000  0.29658700  1
  Mg  Mg6  1  0.70981000  0.56781900  0.20919900  1
  Mg  Mg7  1  0.04077200  0.96822700  0.27582800  1
  Mg  Mg8  1  0.57851400  0.61133500  0.26532300  1
  Mg  Mg9  1  0.02430700  0.39147100  0.20684700  1
  Mg  Mg10  1  0.34050700  0.59796900  0.25018800  1
  Mg  Mg11  1  0.29152400  0.25870300  0.26558600  1
  Mg  Mg12  1  0.00731600  0.89861900  0.20676600  1
  Mg  Mg13  1  0.65738900  0.22696300  0.22468200  1
  Mg  Mg14  1  0.31265000  0.74307500  0.20622700  1
  Mg  Mg15  1  0.26022900  0.40221900  0.22171000  1
  Mg  Mg16  1  0.21357600  0.06276100  0.23789200  1
  Mg  Mg17  1  0.39440000  0.93809800  0.23432200  1
  Mg  Mg18  1  0.89099800  0.24680700  0.24024200  1
  Mg  Mg19  1  0.96272200  0.07141900  0.22414300  1
  Mg  Mg20  1  0.55646300  0.70727700  0.39301700  1
  Mg  Mg21  1  0.87904100  0.52323100  0.39066700  1
  Mg  Mg22  1  0.42953200  0.17207000  0.38072100  1
  Mg  Mg23  1  0.72926600  0.80181100  0.35508100  1
  Mg  Mg24  1  0.84573100  0.47856700  0.32406200  1
  Mg  Mg25  1  0.37563800  0.83194000  0.39658700  1
  Mg  Mg26  1  0.60981000  0.46781900  0.30919900  1
  Mg  Mg27  1  0.94077200  0.86822700  0.37582800  1
  Mg  Mg28  1  0.47851400  0.51133500  0.36532300  1
  Mg  Mg29  1  0.92430700  0.29147100  0.30684700  1
  Mg  Mg30  1  0.24050700  0.49796900  0.35018800  1
  Mg  Mg31  1  0.19152400  0.15870300  0.36558600  1
  Mg  Mg32  1  0.90731600  0.79861900  0.30676600  1
  Mg  Mg33  1  0.55738900  0.12696300  0.32468200  1
  Mg  Mg34  1  0.21265000  0.64307500  0.30622700  1
  Mg  Mg35  1  0.16022900  0.30221900  0.32171000  1
  Mg  Mg36  1  0.11357600  0.96276100  0.33789200  1
  Mg  Mg37  1  0.29440000  0.83809800  0.33432200  1
  Mg  Mg38  1  0.79099800  0.14680700  0.34024200  1
  Mg  Mg39  1  0.86272200  0.97141900  0.32414300  1
  Mg  Mg40  1  0.45646300  0.60727700  0.49301700  1
  Mg  Mg41  1  0.77904100  0.42323100  0.49066700  1
  Mg  Mg42  1  0.32953200  0.07207000  0.48072100  1
  Mg  Mg43  1  0.62926600  0.70181100  0.45508100  1
  Mg  Mg44  1  0.74573100  0.37856700  0.42406200  1
  Mg  Mg45  1  0.27563800  0.73194000  0.49658700  1
  Mg  Mg46  1  0.50981000  0.36781900  0.40919900  1
  Mg  Mg47  1  0.84077200  0.76822700  0.47582800  1
  Mg  Mg48  1  0.37851400  0.41133500  0.46532300  1
  Mg  Mg49  1  0.82430700  0.19147100  0.40684700  1
  Mg  Mg50  1  0.14050700  0.39796900  0.45018800  1
  Mg  Mg51  1  0.09152400  0.05870300  0.46558600  1
  Mg  Mg52  1  0.80731600  0.69861900  0.40676600  1
  Mg  Mg53  1  0.45738900  0.02696300  0.42468200  1
  Mg  Mg54  1  0.11265000  0.54307500  0.40622700  1
  Mg  Mg55  1  0.06022900  0.20221900  0.42171000  1
  Mg  Mg56  1  0.01357600  0.86276100  0.43789200  1
  Mg  Mg57  1  0.19440000  0.73809800  0.43432200  1
  Mg  Mg58  1  0.69099800  0.04680700  0.44024200  1
  Mg  Mg59  1  0.76272200  0.87141900  0.42414300  1
  Mg  Mg60  1  0.35646300  0.50727700  0.59301700  1
  Mg  Mg61  1  0.67904100  0.32323100  0.59066700  1
  Mg  Mg62  1  0.22953200  0.97207000  0.58072100  1
  Mg  Mg63  1  0.52926600  0.60181100  0.55508100  1
  Mg  Mg64  1  0.64573100  0.27856700  0.52406200  1
  Mg  Mg65  1  0.17563800  0.63194000  0.59658700  1
  Mg  Mg66  1  0.40981000  0.26781900  0.50919900  1
  Mg  Mg67  1  0.74077200  0.66822700  0.57582800  1
  Mg  Mg68  1  0.27851400  0.31133500  0.56532300  1
  Mg  Mg69  1  0.72430700  0.09147100  0.50684700  1
  Mg  Mg70  1  0.04050700  0.29796900  0.55018800  1
  Mg  Mg71  1  0.99152400  0.95870300  0.56558600  1
  Mg  Mg72  1  0.70731600  0.59861900  0.50676600  1
  Mg  Mg73  1  0.35738900  0.92696300  0.52468200  1
  Mg  Mg74  1  0.01265000  0.44307500  0.50622700  1
  Mg  Mg75  1  0.96022900  0.10221900  0.52171000  1
  Mg  Mg76  1  0.91357600  0.76276100  0.53789200  1
  Mg  Mg77  1  0.09440000  0.63809800  0.53432200  1
  Mg  Mg78  1  0.59099800  0.94680700  0.54024200  1
  Mg  Mg79  1  0.66272200  0.77141900  0.52414300  1
  Mg  Mg80  1  0.25646300  0.40727700  0.69301700  1
  Mg  Mg81  1  0.57904100  0.22323100  0.69066700  1
  Mg  Mg82  1  0.12953200  0.87207000  0.68072100  1
  Mg  Mg83  1  0.42926600  0.50181100  0.65508100  1
  Mg  Mg84  1  0.54573100  0.17856700  0.62406200  1
  Mg  Mg85  1  0.07563800  0.53194000  0.69658700  1
  Mg  Mg86  1  0.30981000  0.16781900  0.60919900  1
  Mg  Mg87  1  0.64077200  0.56822700  0.67582800  1
  Mg  Mg88  1  0.17851400  0.21133500  0.66532300  1
  Mg  Mg89  1  0.62430700  0.99147100  0.60684700  1
  Mg  Mg90  1  0.94050700  0.19796900  0.65018800  1
  Mg  Mg91  1  0.89152400  0.85870300  0.66558600  1
  Mg  Mg92  1  0.60731600  0.49861900  0.60676600  1
  Mg  Mg93  1  0.25738900  0.82696300  0.62468200  1
  Mg  Mg94  1  0.91265000  0.34307500  0.60622700  1
  Mg  Mg95  1  0.86022900  0.00221900  0.62171000  1
  Mg  Mg96  1  0.81357600  0.66276100  0.63789200  1
  Mg  Mg97  1  0.99440000  0.53809800  0.63432200  1
  Mg  Mg98  1  0.49099800  0.84680700  0.64024200  1
  Mg  Mg99  1  0.56272200  0.67141900  0.62414300  1
  Mg  Mg100  1  0.44573100  0.07856700  0.72406200  1
  Mg  Mg101  1  0.20981000  0.06781900  0.70919900  1
  Mg  Mg102  1  0.52430700  0.89147100  0.70684700  1
  Mg  Mg103  1  0.50731600  0.39861900  0.70676600  1
  Mg  Mg104  1  0.15738900  0.72696300  0.72468200  1
  Mg  Mg105  1  0.81265000  0.24307500  0.70622700  1
  Mg  Mg106  1  0.76022900  0.90221900  0.72171000  1
  Mg  Mg107  1  0.46272200  0.57141900  0.72414300  1
  Zn  Zn108  1  0.78212500  0.52520900  0.26755400  1
  Zn  Zn109  1  0.98717700  0.76880700  0.24905400  1
  Zn  Zn110  1  0.50699400  0.65625800  0.20706800  1
  Zn  Zn111  1  0.12262200  0.22620100  0.22258300  1
  Zn  Zn112  1  0.17149500  0.56969400  0.20754400  1
  Zn  Zn113  1  0.80107000  0.69217800  0.25876500  1
  Zn  Zn114  1  0.48501900  0.48501900  0.21545500  1
  Zn  Zn115  1  0.08791300  0.34482900  0.26335500  1
  Zn  Zn116  1  0.30502800  0.79296700  0.27041300  1
  Zn  Zn117  1  0.74755500  0.34962000  0.27397600  1
  Zn  Zn118  1  0.48156000  0.77516300  0.24978700  1
  Zn  Zn119  1  0.61448400  0.91886800  0.24480200  1
  Zn  Zn120  1  0.61821500  0.42167300  0.24520000  1
  Zn  Zn121  1  0.72718600  0.18599000  0.28210700  1
  Zn  Zn122  1  0.88286100  0.10123100  0.28185500  1
  Zn  Zn123  1  0.56501000  0.07707100  0.26049600  1
  Zn  Zn124  1  0.74985000  0.06121100  0.23892000  1
  Zn  Zn125  1  0.12248300  0.52041800  0.25693300  1
  Zn  Zn126  1  0.06896900  0.17786100  0.27214400  1
  Zn  Zn127  1  0.25182300  0.44836600  0.28570900  1
  Zn  Zn128  1  0.12018800  0.80882700  0.29198900  1
  Zn  Zn129  1  0.79854300  0.40034400  0.22336600  1
  Zn  Zn130  1  0.43501900  0.43501900  0.26545500  1
  Zn  Zn131  1  0.66827900  0.75569200  0.22932000  1
  Zn  Zn132  1  0.43048400  0.72611800  0.29935800  1
  Zn  Zn133  1  0.70120200  0.00810200  0.29021000  1
  Zn  Zn134  1  0.30175900  0.21434700  0.20158900  1
  Zn  Zn135  1  0.16883700  0.86193600  0.24069900  1
  Zn  Zn136  1  0.14285300  0.68404900  0.24880200  1
  Zn  Zn137  1  0.43955400  0.14392000  0.23155100  1
  Zn  Zn138  1  0.84741600  0.74383700  0.20832600  1
  Zn  Zn139  1  0.93501900  0.43501900  0.26545500  1
  Zn  Zn140  1  0.38847800  0.09487500  0.28112200  1
  Zn  Zn141  1  0.25555400  0.95117100  0.28610700  1
  Zn  Zn142  1  0.46304400  0.31378000  0.22384100  1
  Zn  Zn143  1  0.68212500  0.42520900  0.36755400  1
  Zn  Zn144  1  0.88717700  0.66880700  0.34905400  1
  Zn  Zn145  1  0.40699400  0.55625800  0.30706800  1
  Zn  Zn146  1  0.02262200  0.12620100  0.32258300  1
  Zn  Zn147  1  0.07149500  0.46969400  0.30754400  1
  Zn  Zn148  1  0.70107000  0.59217800  0.35876500  1
  Zn  Zn149  1  0.38501900  0.38501900  0.31545500  1
  Zn  Zn150  1  0.98791300  0.24482900  0.36335500  1
  Zn  Zn151  1  0.20502800  0.69296700  0.37041300  1
  Zn  Zn152  1  0.64755500  0.24962000  0.37397600  1
  Zn  Zn153  1  0.38156000  0.67516300  0.34978700  1
  Zn  Zn154  1  0.51448400  0.81886800  0.34480200  1
  Zn  Zn155  1  0.51821500  0.32167300  0.34520000  1
  Zn  Zn156  1  0.62718600  0.08599000  0.38210700  1
  Zn  Zn157  1  0.78286100  0.00123100  0.38185500  1
  Zn  Zn158  1  0.46501000  0.97707100  0.36049600  1
  Zn  Zn159  1  0.64985000  0.96121100  0.33892000  1
  Zn  Zn160  1  0.02248300  0.42041800  0.35693300  1
  Zn  Zn161  1  0.96896900  0.07786100  0.37214400  1
  Zn  Zn162  1  0.15182300  0.34836600  0.38570900  1
  Zn  Zn163  1  0.02018800  0.70882700  0.39198900  1
  Zn  Zn164  1  0.69854300  0.30034400  0.32336600  1
  Zn  Zn165  1  0.33501900  0.33501900  0.36545500  1
  Zn  Zn166  1  0.56827900  0.65569200  0.32932000  1
  Zn  Zn167  1  0.33048400  0.62611800  0.39935800  1
  Zn  Zn168  1  0.60120200  0.90810200  0.39021000  1
  Zn  Zn169  1  0.20175900  0.11434700  0.30158900  1
  Zn  Zn170  1  0.06883700  0.76193600  0.34069900  1
  Zn  Zn171  1  0.04285300  0.58404900  0.34880200  1
  Zn  Zn172  1  0.33955400  0.04392000  0.33155100  1
  Zn  Zn173  1  0.74741600  0.64383700  0.30832600  1
  Zn  Zn174  1  0.83501900  0.33501900  0.36545500  1
  Zn  Zn175  1  0.28847800  0.99487500  0.38112200  1
  Zn  Zn176  1  0.15555400  0.85117100  0.38610700  1
  Zn  Zn177  1  0.36304400  0.21378000  0.32384100  1
  Zn  Zn178  1  0.58212500  0.32520900  0.46755400  1
  Zn  Zn179  1  0.78717700  0.56880700  0.44905400  1
  Zn  Zn180  1  0.30699400  0.45625800  0.40706800  1
  Zn  Zn181  1  0.92262200  0.02620100  0.42258300  1
  Zn  Zn182  1  0.97149500  0.36969400  0.40754400  1
  Zn  Zn183  1  0.60107000  0.49217800  0.45876500  1
  Zn  Zn184  1  0.28501900  0.28501900  0.41545500  1
  Zn  Zn185  1  0.88791300  0.14482900  0.46335500  1
  Zn  Zn186  1  0.10502800  0.59296700  0.47041300  1
  Zn  Zn187  1  0.54755500  0.14962000  0.47397600  1
  Zn  Zn188  1  0.28156000  0.57516300  0.44978700  1
  Zn  Zn189  1  0.41448400  0.71886800  0.44480200  1
  Zn  Zn190  1  0.41821500  0.22167300  0.44520000  1
  Zn  Zn191  1  0.52718600  0.98599000  0.48210700  1
  Zn  Zn192  1  0.68286100  0.90123100  0.48185500  1
  Zn  Zn193  1  0.36501000  0.87707100  0.46049600  1
  Zn  Zn194  1  0.54985000  0.86121100  0.43892000  1
  Zn  Zn195  1  0.92248300  0.32041800  0.45693300  1
  Zn  Zn196  1  0.86896900  0.97786100  0.47214400  1
  Zn  Zn197  1  0.05182300  0.24836600  0.48570900  1
  Zn  Zn198  1  0.92018800  0.60882700  0.49198900  1
  Zn  Zn199  1  0.59854300  0.20034400  0.42336600  1
  Zn  Zn200  1  0.23501900  0.23501900  0.46545500  1
  Zn  Zn201  1  0.46827900  0.55569200  0.42932000  1
  Zn  Zn202  1  0.23048400  0.52611800  0.49935800  1
  Zn  Zn203  1  0.50120200  0.80810200  0.49021000  1
  Zn  Zn204  1  0.10175900  0.01434700  0.40158900  1
  Zn  Zn205  1  0.96883700  0.66193600  0.44069900  1
  Zn  Zn206  1  0.94285300  0.48404900  0.44880200  1
  Zn  Zn207  1  0.23955400  0.94392000  0.43155100  1
  Zn  Zn208  1  0.64741600  0.54383700  0.40832600  1
  Zn  Zn209  1  0.73501900  0.23501900  0.46545500  1
  Zn  Zn210  1  0.18847800  0.89487500  0.48112200  1
  Zn  Zn211  1  0.05555400  0.75117100  0.48610700  1
  Zn  Zn212  1  0.26304400  0.11378000  0.42384100  1
  Zn  Zn213  1  0.48212500  0.22520900  0.56755400  1
  Zn  Zn214  1  0.68717700  0.46880700  0.54905400  1
  Zn  Zn215  1  0.20699400  0.35625800  0.50706800  1
  Zn  Zn216  1  0.82262200  0.92620100  0.52258300  1
  Zn  Zn217  1  0.87149500  0.26969400  0.50754400  1
  Zn  Zn218  1  0.50107000  0.39217800  0.55876500  1
  Zn  Zn219  1  0.18501900  0.18501900  0.51545500  1
  Zn  Zn220  1  0.78791300  0.04482900  0.56335500  1
  Zn  Zn221  1  0.00502800  0.49296700  0.57041300  1
  Zn  Zn222  1  0.44755500  0.04962000  0.57397600  1
  Zn  Zn223  1  0.18156000  0.47516300  0.54978700  1
  Zn  Zn224  1  0.31448400  0.61886800  0.54480200  1
  Zn  Zn225  1  0.31821500  0.12167300  0.54520000  1
  Zn  Zn226  1  0.42718600  0.88599000  0.58210700  1
  Zn  Zn227  1  0.58286100  0.80123100  0.58185500  1
  Zn  Zn228  1  0.26501000  0.77707100  0.56049600  1
  Zn  Zn229  1  0.44985000  0.76121100  0.53892000  1
  Zn  Zn230  1  0.82248300  0.22041800  0.55693300  1
  Zn  Zn231  1  0.76896900  0.87786100  0.57214400  1
  Zn  Zn232  1  0.95182300  0.14836600  0.58570900  1
  Zn  Zn233  1  0.82018800  0.50882700  0.59198900  1
  Zn  Zn234  1  0.49854300  0.10034400  0.52336600  1
  Zn  Zn235  1  0.13501900  0.13501900  0.56545500  1
  Zn  Zn236  1  0.36827900  0.45569200  0.52932000  1
  Zn  Zn237  1  0.13048400  0.42611800  0.59935800  1
  Zn  Zn238  1  0.40120200  0.70810200  0.59021000  1
  Zn  Zn239  1  0.00175900  0.91434700  0.50158900  1
  Zn  Zn240  1  0.86883700  0.56193600  0.54069900  1
  Zn  Zn241  1  0.84285300  0.38404900  0.54880200  1
  Zn  Zn242  1  0.13955400  0.84392000  0.53155100  1
  Zn  Zn243  1  0.54741600  0.44383700  0.50832600  1
  Zn  Zn244  1  0.63501900  0.13501900  0.56545500  1
  Zn  Zn245  1  0.08847800  0.79487500  0.58112200  1
  Zn  Zn246  1  0.95555400  0.65117100  0.58610700  1
  Zn  Zn247  1  0.16304400  0.01378000  0.52384100  1
  Zn  Zn248  1  0.38212500  0.12520900  0.66755400  1
  Zn  Zn249  1  0.58717700  0.36880700  0.64905400  1
  Zn  Zn250  1  0.10699400  0.25625800  0.60706800  1
  Zn  Zn251  1  0.72262200  0.82620100  0.62258300  1
  Zn  Zn252  1  0.77149500  0.16969400  0.60754400  1
  Zn  Zn253  1  0.40107000  0.29217800  0.65876500  1
  Zn  Zn254  1  0.08501900  0.08501900  0.61545500  1
  Zn  Zn255  1  0.68791300  0.94482900  0.66335500  1
  Zn  Zn256  1  0.90502800  0.39296700  0.67041300  1
  Zn  Zn257  1  0.34755500  0.94962000  0.67397600  1
  Zn  Zn258  1  0.08156000  0.37516300  0.64978700  1
  Zn  Zn259  1  0.21448400  0.51886800  0.64480200  1
  Zn  Zn260  1  0.21821500  0.02167300  0.64520000  1
  Zn  Zn261  1  0.32718600  0.78599000  0.68210700  1
  Zn  Zn262  1  0.48286100  0.70123100  0.68185500  1
  Zn  Zn263  1  0.16501000  0.67707100  0.66049600  1
  Zn  Zn264  1  0.34985000  0.66121100  0.63892000  1
  Zn  Zn265  1  0.72248300  0.12041800  0.65693300  1
  Zn  Zn266  1  0.66896900  0.77786100  0.67214400  1
  Zn  Zn267  1  0.85182300  0.04836600  0.68570900  1
  Zn  Zn268  1  0.72018800  0.40882700  0.69198900  1
  Zn  Zn269  1  0.39854300  0.00034400  0.62336600  1
  Zn  Zn270  1  0.03501900  0.03501900  0.66545500  1
  Zn  Zn271  1  0.26827900  0.35569200  0.62932000  1
  Zn  Zn272  1  0.03048400  0.32611800  0.69935800  1
  Zn  Zn273  1  0.30120200  0.60810200  0.69021000  1
  Zn  Zn274  1  0.90175900  0.81434700  0.60158900  1
  Zn  Zn275  1  0.76883700  0.46193600  0.64069900  1
  Zn  Zn276  1  0.74285300  0.28404900  0.64880200  1
  Zn  Zn277  1  0.03955400  0.74392000  0.63155100  1
  Zn  Zn278  1  0.44741600  0.34383700  0.60832600  1
  Zn  Zn279  1  0.53501900  0.03501900  0.66545500  1
  Zn  Zn280  1  0.98847800  0.69487500  0.68112200  1
  Zn  Zn281  1  0.85555400  0.55117100  0.68610700  1
  Zn  Zn282  1  0.06304400  0.91378000  0.62384100  1
  Zn  Zn283  1  0.00699400  0.15625800  0.70706800  1
  Zn  Zn284  1  0.62262200  0.72620100  0.72258300  1
  Zn  Zn285  1  0.67149500  0.06969400  0.70754400  1
  Zn  Zn286  1  0.98501900  0.98501900  0.71545500  1
  Zn  Zn287  1  0.29854300  0.90034400  0.72336600  1
  Zn  Zn288  1  0.16827900  0.25569200  0.72932000  1
  Zn  Zn289  1  0.80175900  0.71434700  0.70158900  1
  Zn  Zn290  1  0.34741600  0.24383700  0.70832600  1
  Zn  Zn291  1  0.96304400  0.81378000  0.72384100  1
