# generated using pymatgen
data_Lu3Mg
_symmetry_space_group_name_H-M   'P 1'
_cell_length_a   6.87894338
_cell_length_b   8.79149489
_cell_length_c   44.47489300
_cell_angle_alpha   91.38583809
_cell_angle_beta   94.43540539
_cell_angle_gamma   66.96911863
_symmetry_Int_Tables_number   1
_chemical_formula_structural   Lu3Mg
_chemical_formula_sum   'Lu42 Mg14'
_cell_volume   2467.82250929
_cell_formula_units_Z   14
loop_
 _symmetry_equiv_pos_site_id
 _symmetry_equiv_pos_as_xyz
  1  'x, y, z'
loop_
 _atom_site_type_symbol
 _atom_site_label
 _atom_site_symmetry_multiplicity
 _atom_site_fract_x
 _atom_site_fract_y
 _atom_site_fract_z
 _atom_site_occupancy
  Lu  Lu0  1  0.06125100  0.93071300  0.23503300  1
  Lu  Lu1  1  0.64967300  0.20509800  0.18930200  1
  Lu  Lu2  1  0.15271300  0.20509800  0.18930200  1
  Lu  Lu3  1  0.66546900  0.24944700  0.26524400  1
  Lu  Lu4  1  0.16850900  0.24944700  0.26524400  1
  Lu  Lu5  1  0.75693100  0.52383300  0.21951300  1
  Lu  Lu6  1  0.87943300  0.38525800  0.32594200  1
  Lu  Lu7  1  0.46785400  0.65964400  0.28021100  1
  Lu  Lu8  1  0.97089500  0.65964400  0.28021100  1
  Lu  Lu9  1  0.48365100  0.70399300  0.35615300  1
  Lu  Lu10  1  0.98669100  0.70399300  0.35615300  1
  Lu  Lu11  1  0.57511300  0.97837800  0.31042200  1
  Lu  Lu12  1  0.69761500  0.83980400  0.41685100  1
  Lu  Lu13  1  0.28603600  0.11418900  0.37112000  1
  Lu  Lu14  1  0.78907600  0.11418900  0.37112000  1
  Lu  Lu15  1  0.30183300  0.15853800  0.44706200  1
  Lu  Lu16  1  0.80487300  0.15853800  0.44706200  1
  Lu  Lu17  1  0.39329500  0.43292400  0.40133100  1
  Lu  Lu18  1  0.51579600  0.29434900  0.50776000  1
  Lu  Lu19  1  0.10421800  0.56873500  0.46202900  1
  Lu  Lu20  1  0.60725800  0.56873500  0.46202900  1
  Lu  Lu21  1  0.12001400  0.61308400  0.53797100  1
  Lu  Lu22  1  0.62305500  0.61308400  0.53797100  1
  Lu  Lu23  1  0.21147600  0.88746900  0.49224000  1
  Lu  Lu24  1  0.33397800  0.74889400  0.59866900  1
  Lu  Lu25  1  0.92240000  0.02328000  0.55293800  1
  Lu  Lu26  1  0.42544000  0.02328000  0.55293800  1
  Lu  Lu27  1  0.93819600  0.06762900  0.62888000  1
  Lu  Lu28  1  0.44123600  0.06762900  0.62888000  1
  Lu  Lu29  1  0.02965800  0.34201500  0.58314900  1
  Lu  Lu30  1  0.15216000  0.20344000  0.68957800  1
  Lu  Lu31  1  0.74058200  0.47782500  0.64384700  1
  Lu  Lu32  1  0.24362200  0.47782500  0.64384700  1
  Lu  Lu33  1  0.75637800  0.52217500  0.71978900  1
  Lu  Lu34  1  0.25941800  0.52217500  0.71978900  1
  Lu  Lu35  1  0.84784000  0.79656000  0.67405800  1
  Lu  Lu36  1  0.97034200  0.65798500  0.78048700  1
  Lu  Lu37  1  0.55876400  0.93237100  0.73475600  1
  Lu  Lu38  1  0.06180400  0.93237100  0.73475600  1
  Lu  Lu39  1  0.57456000  0.97672000  0.81069800  1
  Lu  Lu40  1  0.07760000  0.97672000  0.81069800  1
  Lu  Lu41  1  0.66602200  0.25110600  0.76496700  1
  Mg  Mg42  1  0.56060600  0.93181800  0.23484800  1
  Mg  Mg43  1  0.25757600  0.52272700  0.21969700  1
  Mg  Mg44  1  0.37878800  0.38636400  0.32575800  1
  Mg  Mg45  1  0.07575800  0.97727300  0.31060600  1
  Mg  Mg46  1  0.19697000  0.84090900  0.41666700  1
  Mg  Mg47  1  0.89393900  0.43181800  0.40151500  1
  Mg  Mg48  1  0.01515200  0.29545500  0.50757600  1
  Mg  Mg49  1  0.71212100  0.88636400  0.49242400  1
  Mg  Mg50  1  0.83333300  0.75000000  0.59848500  1
  Mg  Mg51  1  0.53030300  0.34090900  0.58333300  1
  Mg  Mg52  1  0.65151500  0.20454500  0.68939400  1
  Mg  Mg53  1  0.34848500  0.79545500  0.67424200  1
  Mg  Mg54  1  0.46969700  0.65909100  0.78030300  1
  Mg  Mg55  1  0.16666700  0.25000000  0.76515200  1
