# generated using pymatgen
data_Sr8Mg71
_symmetry_space_group_name_H-M   'P 1'
_cell_length_a   10.60291300
_cell_length_b   10.60291324
_cell_length_c   50.63458300
_cell_angle_alpha   90.00000000
_cell_angle_beta   90.00000000
_cell_angle_gamma   120.00000237
_symmetry_Int_Tables_number   1
_chemical_formula_structural   Sr8Mg71
_chemical_formula_sum   'Sr8 Mg71'
_cell_volume   4929.78824196
_cell_formula_units_Z   1
loop_
 _symmetry_equiv_pos_site_id
 _symmetry_equiv_pos_as_xyz
  1  'x, y, z'
loop_
 _atom_site_type_symbol
 _atom_site_label
 _atom_site_symmetry_multiplicity
 _atom_site_fract_x
 _atom_site_fract_y
 _atom_site_fract_z
 _atom_site_occupancy
  Sr  Sr0  1  0.33333300  0.66666700  0.54210500  1
  Sr  Sr1  1  0.66666700  0.33333300  0.44210500  1
  Sr  Sr2  1  0.00000000  0.00000000  0.44210500  1
  Sr  Sr3  1  0.00000000  0.00000000  0.54210500  1
  Sr  Sr4  1  0.33333300  0.66666700  0.74210500  1
  Sr  Sr5  1  0.66666700  0.33333300  0.64210500  1
  Sr  Sr6  1  0.00000000  0.00000000  0.64210500  1
  Sr  Sr7  1  0.00000000  0.00000000  0.74210500  1
  Mg  Mg8  1  0.50000000  0.00000000  0.39210500  1
  Mg  Mg9  1  0.50000000  0.50000000  0.39210500  1
  Mg  Mg10  1  1.00000000  0.50000000  0.39210500  1
  Mg  Mg11  1  0.32930700  0.16465300  0.39641600  1
  Mg  Mg12  1  0.83534700  0.16465300  0.39641600  1
  Mg  Mg13  1  0.83534700  0.67069300  0.39641600  1
  Mg  Mg14  1  0.16465300  0.32930700  0.49641600  1
  Mg  Mg15  1  0.66666700  0.33333300  0.51172600  1
  Mg  Mg16  1  0.33333300  0.66666700  0.41172600  1
  Mg  Mg17  1  0.33333300  0.66666700  0.47248500  1
  Mg  Mg18  1  0.66666700  0.33333300  0.57248500  1
  Mg  Mg19  1  1.00000000  0.50000000  0.49210500  1
  Mg  Mg20  1  0.50000000  0.00000000  0.59210500  1
  Mg  Mg21  1  0.50000000  0.50000000  0.59210500  1
  Mg  Mg22  1  0.50000000  0.50000000  0.49210500  1
  Mg  Mg23  1  0.50000000  0.00000000  0.49210500  1
  Mg  Mg24  1  1.00000000  0.50000000  0.59210500  1
  Mg  Mg25  1  0.96296500  0.63446300  0.54210500  1
  Mg  Mg26  1  0.32850200  0.96296500  0.44210500  1
  Mg  Mg27  1  0.63446300  0.67149800  0.44210500  1
  Mg  Mg28  1  0.36553700  0.32850200  0.54210500  1
  Mg  Mg29  1  0.67149800  0.03703500  0.54210500  1
  Mg  Mg30  1  0.03703500  0.67149800  0.44210500  1
  Mg  Mg31  1  0.63446300  0.96296500  0.44210500  1
  Mg  Mg32  1  0.03703500  0.36553700  0.44210500  1
  Mg  Mg33  1  0.32850200  0.36553700  0.44210500  1
  Mg  Mg34  1  0.67149800  0.63446300  0.54210500  1
  Mg  Mg35  1  0.96296500  0.32850200  0.54210500  1
  Mg  Mg36  1  0.36553700  0.03703500  0.54210500  1
  Mg  Mg37  1  0.83534700  0.67069300  0.48779400  1
  Mg  Mg38  1  0.16465300  0.83534700  0.58779400  1
  Mg  Mg39  1  0.67069300  0.83534700  0.58779400  1
  Mg  Mg40  1  0.32930700  0.16465300  0.48779400  1
  Mg  Mg41  1  0.83534700  0.16465300  0.48779400  1
  Mg  Mg42  1  0.16465300  0.83534700  0.49641600  1
  Mg  Mg43  1  0.67069300  0.83534700  0.49641600  1
  Mg  Mg44  1  0.16465300  0.32930700  0.58779400  1
  Mg  Mg45  1  0.32930700  0.16465300  0.59641600  1
  Mg  Mg46  1  0.83534700  0.16465300  0.59641600  1
  Mg  Mg47  1  0.83534700  0.67069300  0.59641600  1
  Mg  Mg48  1  0.16465300  0.32930700  0.69641600  1
  Mg  Mg49  1  0.66666700  0.33333300  0.71172600  1
  Mg  Mg50  1  0.33333300  0.66666700  0.61172600  1
  Mg  Mg51  1  0.33333300  0.66666700  0.67248500  1
  Mg  Mg52  1  0.66666700  0.33333300  0.77248500  1
  Mg  Mg53  1  1.00000000  0.50000000  0.69210500  1
  Mg  Mg54  1  0.50000000  0.00000000  0.79210500  1
  Mg  Mg55  1  0.50000000  0.50000000  0.79210500  1
  Mg  Mg56  1  0.50000000  0.50000000  0.69210500  1
  Mg  Mg57  1  0.50000000  0.00000000  0.69210500  1
  Mg  Mg58  1  1.00000000  0.50000000  0.79210500  1
  Mg  Mg59  1  0.96296500  0.63446300  0.74210500  1
  Mg  Mg60  1  0.32850200  0.96296500  0.64210500  1
  Mg  Mg61  1  0.63446300  0.67149800  0.64210500  1
  Mg  Mg62  1  0.36553700  0.32850200  0.74210500  1
  Mg  Mg63  1  0.67149800  0.03703500  0.74210500  1
  Mg  Mg64  1  0.03703500  0.67149800  0.64210500  1
  Mg  Mg65  1  0.63446300  0.96296500  0.64210500  1
  Mg  Mg66  1  0.03703500  0.36553700  0.64210500  1
  Mg  Mg67  1  0.32850200  0.36553700  0.64210500  1
  Mg  Mg68  1  0.67149800  0.63446300  0.74210500  1
  Mg  Mg69  1  0.96296500  0.32850200  0.74210500  1
  Mg  Mg70  1  0.36553700  0.03703500  0.74210500  1
  Mg  Mg71  1  0.83534700  0.67069300  0.68779400  1
  Mg  Mg72  1  0.16465300  0.83534700  0.78779400  1
  Mg  Mg73  1  0.67069300  0.83534700  0.78779400  1
  Mg  Mg74  1  0.32930700  0.16465300  0.68779400  1
  Mg  Mg75  1  0.83534700  0.16465300  0.68779400  1
  Mg  Mg76  1  0.16465300  0.83534700  0.69641600  1
  Mg  Mg77  1  0.67069300  0.83534700  0.69641600  1
  Mg  Mg78  1  0.16465300  0.32930700  0.78779400  1
