# generated using pymatgen
data_Mg2Zn
_symmetry_space_group_name_H-M   'P 1'
_cell_length_a   4.91773400
_cell_length_b   15.53747000
_cell_length_c   43.41605000
_cell_angle_alpha   90.00000000
_cell_angle_beta   90.00000000
_cell_angle_gamma   90.00000000
_symmetry_Int_Tables_number   1
_chemical_formula_structural   Mg2Zn
_chemical_formula_sum   'Mg72 Zn36'
_cell_volume   3317.38323776
_cell_formula_units_Z   36
loop_
 _symmetry_equiv_pos_site_id
 _symmetry_equiv_pos_as_xyz
  1  'x, y, z'
loop_
 _atom_site_type_symbol
 _atom_site_label
 _atom_site_symmetry_multiplicity
 _atom_site_fract_x
 _atom_site_fract_y
 _atom_site_fract_z
 _atom_site_occupancy
  Mg  Mg0  1  0.25000000  0.90302700  0.23214300  1
  Mg  Mg1  1  0.25000000  0.71771800  0.19642900  1
  Mg  Mg2  1  0.75000000  0.78228200  0.23214300  1
  Mg  Mg3  1  0.75000000  0.59697300  0.19642900  1
  Mg  Mg4  1  0.25000000  0.40302700  0.19642900  1
  Mg  Mg5  1  0.25000000  0.21771800  0.23214300  1
  Mg  Mg6  1  0.75000000  0.28228200  0.19642900  1
  Mg  Mg7  1  0.75000000  0.09697300  0.23214300  1
  Mg  Mg8  1  0.25000000  0.90302700  0.30357100  1
  Mg  Mg9  1  0.25000000  0.71771800  0.26785700  1
  Mg  Mg10  1  0.75000000  0.78228200  0.30357100  1
  Mg  Mg11  1  0.75000000  0.59697300  0.26785700  1
  Mg  Mg12  1  0.25000000  0.40302700  0.26785700  1
  Mg  Mg13  1  0.25000000  0.21771800  0.30357100  1
  Mg  Mg14  1  0.75000000  0.28228200  0.26785700  1
  Mg  Mg15  1  0.75000000  0.09697300  0.30357100  1
  Mg  Mg16  1  0.25000000  0.90302700  0.37500000  1
  Mg  Mg17  1  0.25000000  0.71771800  0.33928600  1
  Mg  Mg18  1  0.75000000  0.78228200  0.37500000  1
  Mg  Mg19  1  0.75000000  0.59697300  0.33928600  1
  Mg  Mg20  1  0.25000000  0.40302700  0.33928600  1
  Mg  Mg21  1  0.25000000  0.21771800  0.37500000  1
  Mg  Mg22  1  0.75000000  0.28228200  0.33928600  1
  Mg  Mg23  1  0.75000000  0.09697300  0.37500000  1
  Mg  Mg24  1  0.25000000  0.90302700  0.44642900  1
  Mg  Mg25  1  0.25000000  0.71771800  0.41071400  1
  Mg  Mg26  1  0.75000000  0.78228200  0.44642900  1
  Mg  Mg27  1  0.75000000  0.59697300  0.41071400  1
  Mg  Mg28  1  0.25000000  0.40302700  0.41071400  1
  Mg  Mg29  1  0.25000000  0.21771800  0.44642900  1
  Mg  Mg30  1  0.75000000  0.28228200  0.41071400  1
  Mg  Mg31  1  0.75000000  0.09697300  0.44642900  1
  Mg  Mg32  1  0.25000000  0.90302700  0.51785700  1
  Mg  Mg33  1  0.25000000  0.71771800  0.48214300  1
  Mg  Mg34  1  0.75000000  0.78228200  0.51785700  1
  Mg  Mg35  1  0.75000000  0.59697300  0.48214300  1
  Mg  Mg36  1  0.25000000  0.40302700  0.48214300  1
  Mg  Mg37  1  0.25000000  0.21771800  0.51785700  1
  Mg  Mg38  1  0.75000000  0.28228200  0.48214300  1
  Mg  Mg39  1  0.75000000  0.09697300  0.51785700  1
  Mg  Mg40  1  0.25000000  0.90302700  0.58928600  1
  Mg  Mg41  1  0.25000000  0.71771800  0.55357100  1
  Mg  Mg42  1  0.75000000  0.78228200  0.58928600  1
  Mg  Mg43  1  0.75000000  0.59697300  0.55357100  1
  Mg  Mg44  1  0.25000000  0.40302700  0.55357100  1
  Mg  Mg45  1  0.25000000  0.21771800  0.58928600  1
  Mg  Mg46  1  0.75000000  0.28228200  0.55357100  1
  Mg  Mg47  1  0.75000000  0.09697300  0.58928600  1
  Mg  Mg48  1  0.25000000  0.90302700  0.66071400  1
  Mg  Mg49  1  0.25000000  0.71771800  0.62500000  1
  Mg  Mg50  1  0.75000000  0.78228200  0.66071400  1
  Mg  Mg51  1  0.75000000  0.59697300  0.62500000  1
  Mg  Mg52  1  0.25000000  0.40302700  0.62500000  1
  Mg  Mg53  1  0.25000000  0.21771800  0.66071400  1
  Mg  Mg54  1  0.75000000  0.28228200  0.62500000  1
  Mg  Mg55  1  0.75000000  0.09697300  0.66071400  1
  Mg  Mg56  1  0.25000000  0.90302700  0.73214300  1
  Mg  Mg57  1  0.25000000  0.71771800  0.69642900  1
  Mg  Mg58  1  0.75000000  0.78228200  0.73214300  1
  Mg  Mg59  1  0.75000000  0.59697300  0.69642900  1
  Mg  Mg60  1  0.25000000  0.40302700  0.69642900  1
  Mg  Mg61  1  0.25000000  0.21771800  0.73214300  1
  Mg  Mg62  1  0.75000000  0.28228200  0.69642900  1
  Mg  Mg63  1  0.75000000  0.09697300  0.73214300  1
  Mg  Mg64  1  0.25000000  0.90302700  0.80357100  1
  Mg  Mg65  1  0.25000000  0.71771800  0.76785700  1
  Mg  Mg66  1  0.75000000  0.78228200  0.80357100  1
  Mg  Mg67  1  0.75000000  0.59697300  0.76785700  1
  Mg  Mg68  1  0.25000000  0.40302700  0.76785700  1
  Mg  Mg69  1  0.25000000  0.21771800  0.80357100  1
  Mg  Mg70  1  0.75000000  0.28228200  0.76785700  1
  Mg  Mg71  1  0.75000000  0.09697300  0.80357100  1
  Zn  Zn72  1  0.25000000  0.55757800  0.23214300  1
  Zn  Zn73  1  0.75000000  0.94242200  0.19642900  1
  Zn  Zn74  1  0.25000000  0.05757800  0.19642900  1
  Zn  Zn75  1  0.75000000  0.44242200  0.23214300  1
  Zn  Zn76  1  0.25000000  0.55757800  0.30357100  1
  Zn  Zn77  1  0.75000000  0.94242200  0.26785700  1
  Zn  Zn78  1  0.25000000  0.05757800  0.26785700  1
  Zn  Zn79  1  0.75000000  0.44242200  0.30357100  1
  Zn  Zn80  1  0.25000000  0.55757800  0.37500000  1
  Zn  Zn81  1  0.75000000  0.94242200  0.33928600  1
  Zn  Zn82  1  0.25000000  0.05757800  0.33928600  1
  Zn  Zn83  1  0.75000000  0.44242200  0.37500000  1
  Zn  Zn84  1  0.25000000  0.55757800  0.44642900  1
  Zn  Zn85  1  0.75000000  0.94242200  0.41071400  1
  Zn  Zn86  1  0.25000000  0.05757800  0.41071400  1
  Zn  Zn87  1  0.75000000  0.44242200  0.44642900  1
  Zn  Zn88  1  0.25000000  0.55757800  0.51785700  1
  Zn  Zn89  1  0.75000000  0.94242200  0.48214300  1
  Zn  Zn90  1  0.25000000  0.05757800  0.48214300  1
  Zn  Zn91  1  0.75000000  0.44242200  0.51785700  1
  Zn  Zn92  1  0.25000000  0.55757800  0.58928600  1
  Zn  Zn93  1  0.75000000  0.94242200  0.55357100  1
  Zn  Zn94  1  0.25000000  0.05757800  0.55357100  1
  Zn  Zn95  1  0.75000000  0.44242200  0.58928600  1
  Zn  Zn96  1  0.25000000  0.55757800  0.66071400  1
  Zn  Zn97  1  0.75000000  0.94242200  0.62500000  1
  Zn  Zn98  1  0.25000000  0.05757800  0.62500000  1
  Zn  Zn99  1  0.75000000  0.44242200  0.66071400  1
  Zn  Zn100  1  0.25000000  0.55757800  0.73214300  1
  Zn  Zn101  1  0.75000000  0.94242200  0.69642900  1
  Zn  Zn102  1  0.25000000  0.05757800  0.69642900  1
  Zn  Zn103  1  0.75000000  0.44242200  0.73214300  1
  Zn  Zn104  1  0.25000000  0.55757800  0.80357100  1
  Zn  Zn105  1  0.75000000  0.94242200  0.76785700  1
  Zn  Zn106  1  0.25000000  0.05757800  0.76785700  1
  Zn  Zn107  1  0.75000000  0.44242200  0.80357100  1
