# generated using pymatgen
data_Mg17Hg11
_symmetry_space_group_name_H-M   'P 1'
_cell_length_a   5.97810100
_cell_length_b   8.30244934
_cell_length_c   50.50182800
_cell_angle_alpha   94.71500304
_cell_angle_beta   90.00000000
_cell_angle_gamma   90.00000000
_symmetry_Int_Tables_number   1
_chemical_formula_structural   Mg17Hg11
_chemical_formula_sum   'Mg34 Hg22'
_cell_volume   2498.06877802
_cell_formula_units_Z   2
loop_
 _symmetry_equiv_pos_site_id
 _symmetry_equiv_pos_as_xyz
  1  'x, y, z'
loop_
 _atom_site_type_symbol
 _atom_site_label
 _atom_site_symmetry_multiplicity
 _atom_site_fract_x
 _atom_site_fract_y
 _atom_site_fract_z
 _atom_site_occupancy
  Mg  Mg0  1  0.25000000  0.94391600  0.32142900  1
  Mg  Mg1  1  0.75000000  0.80224100  0.28601000  1
  Mg  Mg2  1  0.75000000  0.83766000  0.35684700  1
  Mg  Mg3  1  0.25000000  0.55431000  0.28601000  1
  Mg  Mg4  1  0.25000000  0.58972900  0.35684700  1
  Mg  Mg5  1  0.75000000  0.44805400  0.32142900  1
  Mg  Mg6  1  0.50000000  0.17217600  0.27381000  1
  Mg  Mg7  1  0.00000000  0.64836600  0.22619000  1
  Mg  Mg8  1  0.50000000  0.64836600  0.22619000  1
  Mg  Mg9  1  0.00000000  0.17217600  0.27381000  1
  Mg  Mg10  1  0.25000000  0.51534500  0.46428600  1
  Mg  Mg11  1  0.75000000  0.37367000  0.42886700  1
  Mg  Mg12  1  0.75000000  0.40908900  0.49970400  1
  Mg  Mg13  1  0.25000000  0.12573900  0.42886700  1
  Mg  Mg14  1  0.25000000  0.16115800  0.49970400  1
  Mg  Mg15  1  0.75000000  0.01948300  0.46428600  1
  Mg  Mg16  1  0.50000000  0.74360400  0.41666700  1
  Mg  Mg17  1  0.00000000  0.21979500  0.36904800  1
  Mg  Mg18  1  0.50000000  0.21979500  0.36904800  1
  Mg  Mg19  1  0.00000000  0.74360400  0.41666700  1
  Mg  Mg20  1  0.25000000  0.08677400  0.60714300  1
  Mg  Mg21  1  0.75000000  0.94509900  0.57172400  1
  Mg  Mg22  1  0.75000000  0.98051700  0.64256200  1
  Mg  Mg23  1  0.25000000  0.69716700  0.57172400  1
  Mg  Mg24  1  0.25000000  0.73258600  0.64256200  1
  Mg  Mg25  1  0.75000000  0.59091100  0.60714300  1
  Mg  Mg26  1  0.50000000  0.31503300  0.55952400  1
  Mg  Mg27  1  0.00000000  0.79122300  0.51190500  1
  Mg  Mg28  1  0.50000000  0.79122300  0.51190500  1
  Mg  Mg29  1  0.00000000  0.31503300  0.55952400  1
  Mg  Mg30  1  0.50000000  0.88646100  0.70238100  1
  Mg  Mg31  1  0.00000000  0.36265200  0.65476200  1
  Mg  Mg32  1  0.50000000  0.36265200  0.65476200  1
  Mg  Mg33  1  0.00000000  0.88646100  0.70238100  1
  Hg  Hg34  1  0.25000000  0.30636400  0.32142900  1
  Hg  Hg35  1  0.75000000  0.95757600  0.23423200  1
  Hg  Hg36  1  0.75000000  0.47334400  0.26576800  1
  Hg  Hg37  1  0.25000000  0.34719700  0.23423200  1
  Hg  Hg38  1  0.25000000  0.86296600  0.26576800  1
  Hg  Hg39  1  0.75000000  0.08560700  0.32142900  1
  Hg  Hg40  1  0.25000000  0.87779300  0.46428600  1
  Hg  Hg41  1  0.75000000  0.52900500  0.37708900  1
  Hg  Hg42  1  0.75000000  0.04477300  0.40862600  1
  Hg  Hg43  1  0.25000000  0.91862600  0.37708900  1
  Hg  Hg44  1  0.25000000  0.43439400  0.40862600  1
  Hg  Hg45  1  0.75000000  0.65703500  0.46428600  1
  Hg  Hg46  1  0.25000000  0.44922100  0.60714300  1
  Hg  Hg47  1  0.75000000  0.10043300  0.51994600  1
  Hg  Hg48  1  0.75000000  0.61620200  0.55148300  1
  Hg  Hg49  1  0.25000000  0.49005500  0.51994600  1
  Hg  Hg50  1  0.25000000  0.00582300  0.55148300  1
  Hg  Hg51  1  0.75000000  0.22846400  0.60714300  1
  Hg  Hg52  1  0.75000000  0.67186200  0.66280300  1
  Hg  Hg53  1  0.75000000  0.18763000  0.69434000  1
  Hg  Hg54  1  0.25000000  0.06148300  0.66280300  1
  Hg  Hg55  1  0.25000000  0.57725200  0.69434000  1
