# generated using pymatgen
data_Tb8Mg3
_symmetry_space_group_name_H-M   'P 1'
_cell_length_a   3.69476200
_cell_length_b   3.69476200
_cell_length_c   51.37717300
_cell_angle_alpha   90.00000000
_cell_angle_beta   90.00000000
_cell_angle_gamma   90.00000000
_symmetry_Int_Tables_number   1
_chemical_formula_structural   Tb8Mg3
_chemical_formula_sum   'Tb8 Mg3'
_cell_volume   701.36346711
_cell_formula_units_Z   1
loop_
 _symmetry_equiv_pos_site_id
 _symmetry_equiv_pos_as_xyz
  1  'x, y, z'
loop_
 _atom_site_type_symbol
 _atom_site_label
 _atom_site_symmetry_multiplicity
 _atom_site_fract_x
 _atom_site_fract_y
 _atom_site_fract_z
 _atom_site_occupancy
  Tb  Tb0  1  0.00000000  0.00000000  0.31419100  1
  Tb  Tb1  1  0.50000000  0.50000000  0.26914200  1
  Tb  Tb2  1  0.50000000  0.50000000  0.43919100  1
  Tb  Tb3  1  0.00000000  0.00000000  0.39414200  1
  Tb  Tb4  1  0.00000000  0.00000000  0.56419100  1
  Tb  Tb5  1  0.50000000  0.50000000  0.51914200  1
  Tb  Tb6  1  0.50000000  0.50000000  0.68919100  1
  Tb  Tb7  1  0.00000000  0.00000000  0.64414200  1
  Mg  Mg8  1  0.00000000  0.00000000  0.47916700  1
  Mg  Mg9  1  0.50000000  0.50000000  0.35416700  1
  Mg  Mg10  1  0.50000000  0.50000000  0.60416700  1
