# generated using pymatgen
data_Pr11Mg136
_symmetry_space_group_name_H-M   'P 1'
_cell_length_a   11.89036443
_cell_length_b   11.89036505
_cell_length_c   46.00650700
_cell_angle_alpha   89.87692136
_cell_angle_beta   90.12307864
_cell_angle_gamma   104.41604234
_symmetry_Int_Tables_number   1
_chemical_formula_structural   Pr11Mg136
_chemical_formula_sum   'Pr11 Mg136'
_cell_volume   6299.61031861
_cell_formula_units_Z   1
loop_
 _symmetry_equiv_pos_site_id
 _symmetry_equiv_pos_as_xyz
  1  'x, y, z'
loop_
 _atom_site_type_symbol
 _atom_site_label
 _atom_site_symmetry_multiplicity
 _atom_site_fract_x
 _atom_site_fract_y
 _atom_site_fract_z
 _atom_site_occupancy
  Pr  Pr0  1  0.15369000  0.84631000  0.28269200  1
  Pr  Pr1  1  0.55369000  0.44631000  0.23269200  1
  Pr  Pr2  1  0.35369000  0.64631000  0.38269200  1
  Pr  Pr3  1  0.75369000  0.24631000  0.33269200  1
  Pr  Pr4  1  0.55369000  0.44631000  0.48269200  1
  Pr  Pr5  1  0.95369000  0.04631000  0.43269200  1
  Pr  Pr6  1  0.75369000  0.24631000  0.58269200  1
  Pr  Pr7  1  0.15369000  0.84631000  0.53269200  1
  Pr  Pr8  1  0.95369000  0.04631000  0.68269200  1
  Pr  Pr9  1  0.35369000  0.64631000  0.63269200  1
  Pr  Pr10  1  0.55369000  0.44631000  0.73269200  1
  Mg  Mg11  1  0.25369000  0.24631000  0.20769200  1
  Mg  Mg12  1  0.85369000  0.14631000  0.25769200  1
  Mg  Mg13  1  0.75369000  0.24631000  0.20769200  1
  Mg  Mg14  1  0.35369000  0.14631000  0.25769200  1
  Mg  Mg15  1  0.03549000  0.31676000  0.29746700  1
  Mg  Mg16  1  0.02414000  0.32811000  0.21791700  1
  Mg  Mg17  1  0.08324000  0.56451000  0.24746700  1
  Mg  Mg18  1  0.27189000  0.37586000  0.26791700  1
  Mg  Mg19  1  0.48321000  0.30369000  0.30400200  1
  Mg  Mg20  1  0.01107000  0.77583000  0.21138200  1
  Mg  Mg21  1  0.09631000  0.11679000  0.25400200  1
  Mg  Mg22  1  0.82417000  0.38893000  0.26138200  1
  Mg  Mg23  1  0.85369000  0.64631000  0.25769200  1
  Mg  Mg24  1  0.25369000  0.74631000  0.20769200  1
  Mg  Mg25  1  0.35369000  0.64631000  0.25769200  1
  Mg  Mg26  1  0.75369000  0.74631000  0.20769200  1
  Mg  Mg27  1  0.43549000  0.91676000  0.24746700  1
  Mg  Mg28  1  0.62414000  0.72811000  0.26791700  1
  Mg  Mg29  1  0.68324000  0.96451000  0.29746700  1
  Mg  Mg30  1  0.67189000  0.97586000  0.21791700  1
  Mg  Mg31  1  0.88321000  0.90369000  0.25400200  1
  Mg  Mg32  1  0.61107000  0.17583000  0.26138200  1
  Mg  Mg33  1  0.69631000  0.51679000  0.30400200  1
  Mg  Mg34  1  0.22417000  0.98893000  0.21138200  1
  Mg  Mg35  1  0.45369000  0.04631000  0.30769200  1
  Mg  Mg36  1  0.05369000  0.94631000  0.35769200  1
  Mg  Mg37  1  0.95369000  0.04631000  0.30769200  1
  Mg  Mg38  1  0.55369000  0.94631000  0.35769200  1
  Mg  Mg39  1  0.23549000  0.11676000  0.39746700  1
  Mg  Mg40  1  0.22414000  0.12811000  0.31791700  1
  Mg  Mg41  1  0.28324000  0.36451000  0.34746700  1
  Mg  Mg42  1  0.47189000  0.17586000  0.36791700  1
  Mg  Mg43  1  0.68321000  0.10369000  0.40400200  1
  Mg  Mg44  1  0.21107000  0.57583000  0.31138200  1
  Mg  Mg45  1  0.29631000  0.91679000  0.35400200  1
  Mg  Mg46  1  0.02417000  0.18893000  0.36138200  1
  Mg  Mg47  1  0.05369000  0.44631000  0.35769200  1
  Mg  Mg48  1  0.45369000  0.54631000  0.30769200  1
  Mg  Mg49  1  0.55369000  0.44631000  0.35769200  1
  Mg  Mg50  1  0.95369000  0.54631000  0.30769200  1
  Mg  Mg51  1  0.63549000  0.71676000  0.34746700  1
  Mg  Mg52  1  0.82414000  0.52811000  0.36791700  1
  Mg  Mg53  1  0.88324000  0.76451000  0.39746700  1
  Mg  Mg54  1  0.87189000  0.77586000  0.31791700  1
  Mg  Mg55  1  0.08321000  0.70369000  0.35400200  1
  Mg  Mg56  1  0.81107000  0.97583000  0.36138200  1
  Mg  Mg57  1  0.89631000  0.31679000  0.40400200  1
  Mg  Mg58  1  0.42417000  0.78893000  0.31138200  1
  Mg  Mg59  1  0.65369000  0.84631000  0.40769200  1
  Mg  Mg60  1  0.25369000  0.74631000  0.45769200  1
  Mg  Mg61  1  0.15369000  0.84631000  0.40769200  1
  Mg  Mg62  1  0.75369000  0.74631000  0.45769200  1
  Mg  Mg63  1  0.43549000  0.91676000  0.49746700  1
  Mg  Mg64  1  0.42414000  0.92811000  0.41791700  1
  Mg  Mg65  1  0.48324000  0.16451000  0.44746700  1
  Mg  Mg66  1  0.67189000  0.97586000  0.46791700  1
  Mg  Mg67  1  0.88321000  0.90369000  0.50400200  1
  Mg  Mg68  1  0.41107000  0.37583000  0.41138200  1
  Mg  Mg69  1  0.49631000  0.71679000  0.45400200  1
  Mg  Mg70  1  0.22417000  0.98893000  0.46138200  1
  Mg  Mg71  1  0.25369000  0.24631000  0.45769200  1
  Mg  Mg72  1  0.65369000  0.34631000  0.40769200  1
  Mg  Mg73  1  0.75369000  0.24631000  0.45769200  1
  Mg  Mg74  1  0.15369000  0.34631000  0.40769200  1
  Mg  Mg75  1  0.83549000  0.51676000  0.44746700  1
  Mg  Mg76  1  0.02414000  0.32811000  0.46791700  1
  Mg  Mg77  1  0.08324000  0.56451000  0.49746700  1
  Mg  Mg78  1  0.07189000  0.57586000  0.41791700  1
  Mg  Mg79  1  0.28321000  0.50369000  0.45400200  1
  Mg  Mg80  1  0.01107000  0.77583000  0.46138200  1
  Mg  Mg81  1  0.09631000  0.11679000  0.50400200  1
  Mg  Mg82  1  0.62417000  0.58893000  0.41138200  1
  Mg  Mg83  1  0.85369000  0.64631000  0.50769200  1
  Mg  Mg84  1  0.45369000  0.54631000  0.55769200  1
  Mg  Mg85  1  0.35369000  0.64631000  0.50769200  1
  Mg  Mg86  1  0.95369000  0.54631000  0.55769200  1
  Mg  Mg87  1  0.63549000  0.71676000  0.59746700  1
  Mg  Mg88  1  0.62414000  0.72811000  0.51791700  1
  Mg  Mg89  1  0.68324000  0.96451000  0.54746700  1
  Mg  Mg90  1  0.87189000  0.77586000  0.56791700  1
  Mg  Mg91  1  0.08321000  0.70369000  0.60400200  1
  Mg  Mg92  1  0.61107000  0.17583000  0.51138200  1
  Mg  Mg93  1  0.69631000  0.51679000  0.55400200  1
  Mg  Mg94  1  0.42417000  0.78893000  0.56138200  1
  Mg  Mg95  1  0.45369000  0.04631000  0.55769200  1
  Mg  Mg96  1  0.85369000  0.14631000  0.50769200  1
  Mg  Mg97  1  0.95369000  0.04631000  0.55769200  1
  Mg  Mg98  1  0.35369000  0.14631000  0.50769200  1
  Mg  Mg99  1  0.03549000  0.31676000  0.54746700  1
  Mg  Mg100  1  0.22414000  0.12811000  0.56791700  1
  Mg  Mg101  1  0.28324000  0.36451000  0.59746700  1
  Mg  Mg102  1  0.27189000  0.37586000  0.51791700  1
  Mg  Mg103  1  0.48321000  0.30369000  0.55400200  1
  Mg  Mg104  1  0.21107000  0.57583000  0.56138200  1
  Mg  Mg105  1  0.29631000  0.91679000  0.60400200  1
  Mg  Mg106  1  0.82417000  0.38893000  0.51138200  1
  Mg  Mg107  1  0.05369000  0.44631000  0.60769200  1
  Mg  Mg108  1  0.65369000  0.34631000  0.65769200  1
  Mg  Mg109  1  0.55369000  0.44631000  0.60769200  1
  Mg  Mg110  1  0.15369000  0.34631000  0.65769200  1
  Mg  Mg111  1  0.83549000  0.51676000  0.69746700  1
  Mg  Mg112  1  0.82414000  0.52811000  0.61791700  1
  Mg  Mg113  1  0.88324000  0.76451000  0.64746700  1
  Mg  Mg114  1  0.07189000  0.57586000  0.66791700  1
  Mg  Mg115  1  0.28321000  0.50369000  0.70400200  1
  Mg  Mg116  1  0.81107000  0.97583000  0.61138200  1
  Mg  Mg117  1  0.89631000  0.31679000  0.65400200  1
  Mg  Mg118  1  0.62417000  0.58893000  0.66138200  1
  Mg  Mg119  1  0.65369000  0.84631000  0.65769200  1
  Mg  Mg120  1  0.05369000  0.94631000  0.60769200  1
  Mg  Mg121  1  0.15369000  0.84631000  0.65769200  1
  Mg  Mg122  1  0.55369000  0.94631000  0.60769200  1
  Mg  Mg123  1  0.23549000  0.11676000  0.64746700  1
  Mg  Mg124  1  0.42414000  0.92811000  0.66791700  1
  Mg  Mg125  1  0.48324000  0.16451000  0.69746700  1
  Mg  Mg126  1  0.47189000  0.17586000  0.61791700  1
  Mg  Mg127  1  0.68321000  0.10369000  0.65400200  1
  Mg  Mg128  1  0.41107000  0.37583000  0.66138200  1
  Mg  Mg129  1  0.49631000  0.71679000  0.70400200  1
  Mg  Mg130  1  0.02417000  0.18893000  0.61138200  1
  Mg  Mg131  1  0.25369000  0.24631000  0.70769200  1
  Mg  Mg132  1  0.85369000  0.14631000  0.75769200  1
  Mg  Mg133  1  0.75369000  0.24631000  0.70769200  1
  Mg  Mg134  1  0.35369000  0.14631000  0.75769200  1
  Mg  Mg135  1  0.02414000  0.32811000  0.71791700  1
  Mg  Mg136  1  0.08324000  0.56451000  0.74746700  1
  Mg  Mg137  1  0.01107000  0.77583000  0.71138200  1
  Mg  Mg138  1  0.09631000  0.11679000  0.75400200  1
  Mg  Mg139  1  0.85369000  0.64631000  0.75769200  1
  Mg  Mg140  1  0.25369000  0.74631000  0.70769200  1
  Mg  Mg141  1  0.35369000  0.64631000  0.75769200  1
  Mg  Mg142  1  0.75369000  0.74631000  0.70769200  1
  Mg  Mg143  1  0.43549000  0.91676000  0.74746700  1
  Mg  Mg144  1  0.67189000  0.97586000  0.71791700  1
  Mg  Mg145  1  0.88321000  0.90369000  0.75400200  1
  Mg  Mg146  1  0.22417000  0.98893000  0.71138200  1
