# generated using pymatgen
data_Mg23B160
_symmetry_space_group_name_H-M   'P 1'
_cell_length_a   7.26364870
_cell_length_b   7.26364888
_cell_length_c   48.33922800
_cell_angle_alpha   94.01003019
_cell_angle_beta   94.01003029
_cell_angle_gamma   92.20890678
_symmetry_Int_Tables_number   1
_chemical_formula_structural   Mg23B160
_chemical_formula_sum   'Mg23 B160'
_cell_volume   2535.51535720
_cell_formula_units_Z   1
loop_
 _symmetry_equiv_pos_site_id
 _symmetry_equiv_pos_as_xyz
  1  'x, y, z'
loop_
 _atom_site_type_symbol
 _atom_site_label
 _atom_site_symmetry_multiplicity
 _atom_site_fract_x
 _atom_site_fract_y
 _atom_site_fract_z
 _atom_site_occupancy
  Mg  Mg0  1  0.25985500  0.75985500  0.73593800  1
  Mg  Mg1  1  0.59106200  0.09106200  0.72240300  1
  Mg  Mg2  1  0.92864700  0.42864700  0.74947200  1
  Mg  Mg3  1  0.05985500  0.55985500  0.68593700  1
  Mg  Mg4  1  0.85985500  0.35985500  0.63593800  1
  Mg  Mg5  1  0.19106200  0.69106200  0.62240300  1
  Mg  Mg6  1  0.52864700  0.02864700  0.64947200  1
  Mg  Mg7  1  0.65985500  0.15985500  0.58593800  1
  Mg  Mg8  1  0.45985500  0.95985500  0.53593700  1
  Mg  Mg9  1  0.79106200  0.29106200  0.52240300  1
  Mg  Mg10  1  0.12864700  0.62864700  0.54947200  1
  Mg  Mg11  1  0.25985500  0.75985500  0.48593800  1
  Mg  Mg12  1  0.05985500  0.55985500  0.43593800  1
  Mg  Mg13  1  0.39106200  0.89106200  0.42240300  1
  Mg  Mg14  1  0.72864700  0.22864700  0.44947200  1
  Mg  Mg15  1  0.85985500  0.35985500  0.38593800  1
  Mg  Mg16  1  0.65985500  0.15985500  0.33593800  1
  Mg  Mg17  1  0.99106200  0.49106200  0.32240300  1
  Mg  Mg18  1  0.32864700  0.82864700  0.34947200  1
  Mg  Mg19  1  0.45985500  0.95985500  0.28593700  1
  Mg  Mg20  1  0.25985500  0.75985500  0.23593800  1
  Mg  Mg21  1  0.59106200  0.09106200  0.22240300  1
  Mg  Mg22  1  0.92864700  0.42864700  0.24947200  1
  B  B23  1  0.33120000  0.05019700  0.74746400  1
  B  B24  1  0.41221100  0.25654300  0.76574900  1
  B  B25  1  0.20950000  0.05383200  0.71507100  1
  B  B26  1  0.48336300  0.64795600  0.76830300  1
  B  B27  1  0.55932700  0.43203600  0.75404000  1
  B  B28  1  0.37175300  0.53634700  0.70357200  1
  B  B29  1  0.55019700  0.83120000  0.74746400  1
  B  B30  1  0.75654300  0.91221100  0.76574900  1
  B  B31  1  0.55383200  0.70950000  0.71507100  1
  B  B32  1  0.58767300  0.46038300  0.71783500  1
  B  B33  1  0.93203600  0.05932700  0.75404000  1
  B  B34  1  0.96587700  0.81020900  0.75680400  1
  B  B35  1  0.76316600  0.60749800  0.70612600  1
  B  B36  1  0.96951200  0.68850900  0.72441100  1
  B  B37  1  0.14795600  0.98336300  0.76830300  1
  B  B38  1  0.96038300  0.08767300  0.71783500  1
  B  B39  1  0.03634700  0.87175300  0.70357200  1
  B  B40  1  0.31020900  0.46587700  0.75680400  1
  B  B41  1  0.10749800  0.26316600  0.70612600  1
  B  B42  1  0.18850900  0.46951200  0.72441100  1
  B  B43  1  0.93120000  0.65019700  0.64746400  1
  B  B44  1  0.01221100  0.85654300  0.66574900  1
  B  B45  1  0.80950000  0.65383200  0.61507100  1
  B  B46  1  0.08336300  0.24795600  0.66830300  1
  B  B47  1  0.24061800  0.90835400  0.68349900  1
  B  B48  1  0.15932700  0.03203600  0.65404000  1
  B  B49  1  0.28377300  0.15648300  0.68515200  1
  B  B50  1  0.97175300  0.13634700  0.60357200  1
  B  B51  1  0.15019700  0.43120000  0.64746400  1
  B  B52  1  0.40835400  0.74061800  0.68349900  1
  B  B53  1  0.35654300  0.51221100  0.66574900  1
  B  B54  1  0.15383200  0.30950000  0.61507100  1
  B  B55  1  0.46322600  0.33593600  0.68672300  1
  B  B56  1  0.18767300  0.06038300  0.61783500  1
  B  B57  1  0.53203600  0.65932700  0.65404000  1
  B  B58  1  0.65648300  0.78377300  0.68515200  1
  B  B59  1  0.56587700  0.41020900  0.65680400  1
  B  B60  1  0.36316600  0.20749800  0.60612600  1
  B  B61  1  0.71135600  0.37909100  0.68837600  1
  B  B62  1  0.56951200  0.28850900  0.62441100  1
  B  B63  1  0.74795600  0.58336300  0.66830300  1
  B  B64  1  0.83593600  0.96322600  0.68672300  1
  B  B65  1  0.56038300  0.68767300  0.61783500  1
  B  B66  1  0.87909100  0.21135600  0.68837600  1
  B  B67  1  0.63634700  0.47175300  0.60357200  1
  B  B68  1  0.91020900  0.06587700  0.65680400  1
  B  B69  1  0.70749800  0.86316600  0.60612600  1
  B  B70  1  0.78850900  0.06951200  0.62441100  1
  B  B71  1  0.53120000  0.25019700  0.54746400  1
  B  B72  1  0.61221100  0.45654300  0.56574900  1
  B  B73  1  0.40950000  0.25383200  0.51507100  1
  B  B74  1  0.68336300  0.84795600  0.56830300  1
  B  B75  1  0.84061800  0.50835400  0.58349900  1
  B  B76  1  0.75932700  0.63203600  0.55404000  1
  B  B77  1  0.88377300  0.75648300  0.58515200  1
  B  B78  1  0.57175300  0.73634700  0.50357200  1
  B  B79  1  0.75019700  0.03120000  0.54746400  1
  B  B80  1  0.00835400  0.34061800  0.58349900  1
  B  B81  1  0.95654300  0.11221100  0.56574900  1
  B  B82  1  0.75383200  0.90950000  0.51507100  1
  B  B83  1  0.06322600  0.93593600  0.58672300  1
  B  B84  1  0.78767300  0.66038300  0.51783500  1
  B  B85  1  0.13203600  0.25932700  0.55404000  1
  B  B86  1  0.25648300  0.38377300  0.58515200  1
  B  B87  1  0.16587700  0.01020900  0.55680400  1
  B  B88  1  0.96316600  0.80749800  0.50612600  1
  B  B89  1  0.31135600  0.97909100  0.58837600  1
  B  B90  1  0.16951200  0.88850900  0.52441100  1
  B  B91  1  0.34795600  0.18336300  0.56830300  1
  B  B92  1  0.43593600  0.56322600  0.58672300  1
  B  B93  1  0.16038300  0.28767300  0.51783500  1
  B  B94  1  0.47909100  0.81135600  0.58837600  1
  B  B95  1  0.23634700  0.07175300  0.50357200  1
  B  B96  1  0.51020900  0.66587700  0.55680400  1
  B  B97  1  0.30749800  0.46316600  0.50612600  1
  B  B98  1  0.38850900  0.66951200  0.52441100  1
  B  B99  1  0.13120000  0.85019700  0.44746400  1
  B  B100  1  0.21221100  0.05654300  0.46574900  1
  B  B101  1  0.00950000  0.85383200  0.41507100  1
  B  B102  1  0.28336300  0.44795600  0.46830300  1
  B  B103  1  0.44061800  0.10835400  0.48349900  1
  B  B104  1  0.35932700  0.23203600  0.45404000  1
  B  B105  1  0.48377300  0.35648300  0.48515200  1
  B  B106  1  0.17175300  0.33634700  0.40357200  1
  B  B107  1  0.35019700  0.63120000  0.44746400  1
  B  B108  1  0.60835400  0.94061800  0.48349900  1
  B  B109  1  0.55654300  0.71221100  0.46574900  1
  B  B110  1  0.35383200  0.50950000  0.41507100  1
  B  B111  1  0.66322600  0.53593600  0.48672300  1
  B  B112  1  0.38767300  0.26038300  0.41783500  1
  B  B113  1  0.73203600  0.85932700  0.45404000  1
  B  B114  1  0.85648300  0.98377300  0.48515200  1
  B  B115  1  0.76587700  0.61020900  0.45680400  1
  B  B116  1  0.56316600  0.40749800  0.40612600  1
  B  B117  1  0.91135600  0.57909100  0.48837600  1
  B  B118  1  0.76951200  0.48850900  0.42441100  1
  B  B119  1  0.94795600  0.78336300  0.46830300  1
  B  B120  1  0.03593600  0.16322600  0.48672300  1
  B  B121  1  0.76038300  0.88767300  0.41783500  1
  B  B122  1  0.07909100  0.41135600  0.48837600  1
  B  B123  1  0.83634700  0.67175300  0.40357200  1
  B  B124  1  0.11020900  0.26587700  0.45680400  1
  B  B125  1  0.90749800  0.06316600  0.40612600  1
  B  B126  1  0.98850900  0.26951200  0.42441100  1
  B  B127  1  0.73120000  0.45019700  0.34746400  1
  B  B128  1  0.81221100  0.65654300  0.36574900  1
  B  B129  1  0.60950000  0.45383200  0.31507100  1
  B  B130  1  0.88336300  0.04795600  0.36830300  1
  B  B131  1  0.04061800  0.70835400  0.38349900  1
  B  B132  1  0.95932700  0.83203600  0.35404000  1
  B  B133  1  0.08377300  0.95648300  0.38515200  1
  B  B134  1  0.77175300  0.93634700  0.30357200  1
  B  B135  1  0.95019700  0.23120000  0.34746400  1
  B  B136  1  0.20835400  0.54061800  0.38349900  1
  B  B137  1  0.15654300  0.31221100  0.36574900  1
  B  B138  1  0.95383200  0.10950000  0.31507100  1
  B  B139  1  0.26322600  0.13593600  0.38672300  1
  B  B140  1  0.98767300  0.86038300  0.31783500  1
  B  B141  1  0.33203600  0.45932700  0.35404000  1
  B  B142  1  0.45648300  0.58377300  0.38515200  1
  B  B143  1  0.36587700  0.21020900  0.35680400  1
  B  B144  1  0.16316600  0.00749800  0.30612600  1
  B  B145  1  0.51135600  0.17909100  0.38837600  1
  B  B146  1  0.36951200  0.08850900  0.32441100  1
  B  B147  1  0.54795600  0.38336300  0.36830300  1
  B  B148  1  0.63593600  0.76322600  0.38672300  1
  B  B149  1  0.36038300  0.48767300  0.31783500  1
  B  B150  1  0.67909100  0.01135600  0.38837600  1
  B  B151  1  0.43634700  0.27175300  0.30357200  1
  B  B152  1  0.71020900  0.86587700  0.35680400  1
  B  B153  1  0.50749800  0.66316600  0.30612600  1
  B  B154  1  0.58850900  0.86951200  0.32441100  1
  B  B155  1  0.33120000  0.05019700  0.24746400  1
  B  B156  1  0.41221100  0.25654300  0.26574900  1
  B  B157  1  0.20950000  0.05383200  0.21507100  1
  B  B158  1  0.48336300  0.64795600  0.26830300  1
  B  B159  1  0.64061800  0.30835400  0.28349900  1
  B  B160  1  0.55932700  0.43203600  0.25404000  1
  B  B161  1  0.68377300  0.55648300  0.28515200  1
  B  B162  1  0.37175300  0.53634700  0.20357200  1
  B  B163  1  0.55019700  0.83120000  0.24746400  1
  B  B164  1  0.80835400  0.14061800  0.28349900  1
  B  B165  1  0.75654300  0.91221100  0.26574900  1
  B  B166  1  0.55383200  0.70950000  0.21507100  1
  B  B167  1  0.86322600  0.73593600  0.28672300  1
  B  B168  1  0.58767300  0.46038300  0.21783500  1
  B  B169  1  0.93203600  0.05932700  0.25404000  1
  B  B170  1  0.05648300  0.18377300  0.28515200  1
  B  B171  1  0.96587700  0.81020900  0.25680400  1
  B  B172  1  0.76316600  0.60749800  0.20612600  1
  B  B173  1  0.11135600  0.77909100  0.28837600  1
  B  B174  1  0.96951200  0.68850900  0.22441100  1
  B  B175  1  0.14795600  0.98336300  0.26830300  1
  B  B176  1  0.23593600  0.36322600  0.28672300  1
  B  B177  1  0.96038300  0.08767300  0.21783500  1
  B  B178  1  0.27909100  0.61135600  0.28837600  1
  B  B179  1  0.03634700  0.87175300  0.20357200  1
  B  B180  1  0.31020900  0.46587700  0.25680400  1
  B  B181  1  0.10749800  0.26316600  0.20612600  1
  B  B182  1  0.18850900  0.46951200  0.22441100  1
