# generated using pymatgen
data_CeMg2
_symmetry_space_group_name_H-M   'P 1'
_cell_length_a   6.10380826
_cell_length_b   9.04803440
_cell_length_c   43.09862600
_cell_angle_alpha   93.06597768
_cell_angle_beta   91.86959958
_cell_angle_gamma   95.28202900
_symmetry_Int_Tables_number   1
_chemical_formula_structural   CeMg2
_chemical_formula_sum   'Ce20 Mg40'
_cell_volume   2365.03990550
_cell_formula_units_Z   20
loop_
 _symmetry_equiv_pos_site_id
 _symmetry_equiv_pos_as_xyz
  1  'x, y, z'
loop_
 _atom_site_type_symbol
 _atom_site_label
 _atom_site_symmetry_multiplicity
 _atom_site_fract_x
 _atom_site_fract_y
 _atom_site_fract_z
 _atom_site_occupancy
  Ce  Ce0  1  0.05280900  0.15927100  0.23679800  1
  Ce  Ce1  1  0.69719100  0.27822900  0.20070200  1
  Ce  Ce2  1  0.80280900  0.22177100  0.29929800  1
  Ce  Ce3  1  0.44719100  0.34072900  0.26320200  1
  Ce  Ce4  1  0.55280900  0.28427100  0.36179800  1
  Ce  Ce5  1  0.19719100  0.40322900  0.32570200  1
  Ce  Ce6  1  0.30280900  0.34677100  0.42429800  1
  Ce  Ce7  1  0.94719100  0.46572900  0.38820200  1
  Ce  Ce8  1  0.05280900  0.40927100  0.48679800  1
  Ce  Ce9  1  0.69719100  0.52822900  0.45070200  1
  Ce  Ce10  1  0.80280900  0.47177100  0.54929800  1
  Ce  Ce11  1  0.44719100  0.59072900  0.51320200  1
  Ce  Ce12  1  0.55280900  0.53427100  0.61179800  1
  Ce  Ce13  1  0.19719100  0.65322900  0.57570200  1
  Ce  Ce14  1  0.30280900  0.59677100  0.67429800  1
  Ce  Ce15  1  0.94719100  0.71572900  0.63820200  1
  Ce  Ce16  1  0.05280900  0.65927100  0.73679800  1
  Ce  Ce17  1  0.69719100  0.77822900  0.70070200  1
  Ce  Ce18  1  0.80280900  0.72177100  0.79929800  1
  Ce  Ce19  1  0.44719100  0.84072900  0.76320200  1
  Mg  Mg20  1  0.21889800  0.44646100  0.19527500  1
  Mg  Mg21  1  0.13304700  0.78111300  0.21673800  1
  Mg  Mg22  1  0.61695300  0.65638700  0.22076200  1
  Mg  Mg23  1  0.53110200  0.99103900  0.24222500  1
  Mg  Mg24  1  0.96889800  0.50896100  0.25777500  1
  Mg  Mg25  1  0.88304700  0.84361300  0.27923800  1
  Mg  Mg26  1  0.36695300  0.71888700  0.28326200  1
  Mg  Mg27  1  0.28110200  0.05353900  0.30472500  1
  Mg  Mg28  1  0.71889800  0.57146100  0.32027500  1
  Mg  Mg29  1  0.63304700  0.90611300  0.34173800  1
  Mg  Mg30  1  0.11695300  0.78138700  0.34576200  1
  Mg  Mg31  1  0.03110200  0.11603900  0.36722500  1
  Mg  Mg32  1  0.46889800  0.63396100  0.38277500  1
  Mg  Mg33  1  0.38304700  0.96861300  0.40423800  1
  Mg  Mg34  1  0.86695300  0.84388700  0.40826200  1
  Mg  Mg35  1  0.78110200  0.17853900  0.42972500  1
  Mg  Mg36  1  0.21889800  0.69646100  0.44527500  1
  Mg  Mg37  1  0.13304700  0.03111300  0.46673800  1
  Mg  Mg38  1  0.61695300  0.90638700  0.47076200  1
  Mg  Mg39  1  0.53110200  0.24103900  0.49222500  1
  Mg  Mg40  1  0.96889800  0.75896100  0.50777500  1
  Mg  Mg41  1  0.88304700  0.09361300  0.52923800  1
  Mg  Mg42  1  0.36695300  0.96888700  0.53326200  1
  Mg  Mg43  1  0.28110200  0.30353900  0.55472500  1
  Mg  Mg44  1  0.71889800  0.82146100  0.57027500  1
  Mg  Mg45  1  0.63304700  0.15611300  0.59173800  1
  Mg  Mg46  1  0.11695300  0.03138700  0.59576200  1
  Mg  Mg47  1  0.03110200  0.36603900  0.61722500  1
  Mg  Mg48  1  0.46889800  0.88396100  0.63277500  1
  Mg  Mg49  1  0.38304700  0.21861300  0.65423800  1
  Mg  Mg50  1  0.86695300  0.09388700  0.65826200  1
  Mg  Mg51  1  0.78110200  0.42853900  0.67972500  1
  Mg  Mg52  1  0.21889800  0.94646100  0.69527500  1
  Mg  Mg53  1  0.13304700  0.28111300  0.71673800  1
  Mg  Mg54  1  0.61695300  0.15638700  0.72076200  1
  Mg  Mg55  1  0.53110200  0.49103900  0.74222500  1
  Mg  Mg56  1  0.96889800  0.00896100  0.75777500  1
  Mg  Mg57  1  0.88304700  0.34361300  0.77923800  1
  Mg  Mg58  1  0.36695300  0.21888700  0.78326200  1
  Mg  Mg59  1  0.28110200  0.55353900  0.80472500  1
