# generated using pymatgen
data_Mg20Cd9
_symmetry_space_group_name_H-M   'P 1'
_cell_length_a   6.08289758
_cell_length_b   8.21260687
_cell_length_c   42.73648200
_cell_angle_alpha   91.15721162
_cell_angle_beta   91.74581926
_cell_angle_gamma   95.77864034
_symmetry_Int_Tables_number   1
_chemical_formula_structural   Mg20Cd9
_chemical_formula_sum   'Mg40 Cd18'
_cell_volume   2122.54658665
_cell_formula_units_Z   2
loop_
 _symmetry_equiv_pos_site_id
 _symmetry_equiv_pos_as_xyz
  1  'x, y, z'
loop_
 _atom_site_type_symbol
 _atom_site_label
 _atom_site_symmetry_multiplicity
 _atom_site_fract_x
 _atom_site_fract_y
 _atom_site_fract_z
 _atom_site_occupancy
  Mg  Mg0  1  0.09009900  0.11584100  0.22744600  1
  Mg  Mg1  1  0.17276800  0.75652800  0.20677900  1
  Mg  Mg2  1  0.66033100  0.66013800  0.20988800  1
  Mg  Mg3  1  0.74300000  0.30082600  0.18922100  1
  Mg  Mg4  1  0.84009900  0.17834100  0.28994600  1
  Mg  Mg5  1  0.92276800  0.81902800  0.26927900  1
  Mg  Mg6  1  0.41033100  0.72263800  0.27238800  1
  Mg  Mg7  1  0.49300000  0.36332600  0.25172100  1
  Mg  Mg8  1  0.59009900  0.24084100  0.35244600  1
  Mg  Mg9  1  0.67276800  0.88152800  0.33177900  1
  Mg  Mg10  1  0.16033100  0.78513800  0.33488800  1
  Mg  Mg11  1  0.24300000  0.42582600  0.31422100  1
  Mg  Mg12  1  0.34009900  0.30334100  0.41494600  1
  Mg  Mg13  1  0.42276800  0.94402800  0.39427900  1
  Mg  Mg14  1  0.91033100  0.84763800  0.39738800  1
  Mg  Mg15  1  0.99300000  0.48832600  0.37672100  1
  Mg  Mg16  1  0.09009900  0.36584100  0.47744600  1
  Mg  Mg17  1  0.17276800  0.00652800  0.45677900  1
  Mg  Mg18  1  0.66033100  0.91013800  0.45988800  1
  Mg  Mg19  1  0.74300000  0.55082600  0.43922100  1
  Mg  Mg20  1  0.84009900  0.42834100  0.53994600  1
  Mg  Mg21  1  0.92276800  0.06902800  0.51927900  1
  Mg  Mg22  1  0.41033100  0.97263800  0.52238800  1
  Mg  Mg23  1  0.49300000  0.61332600  0.50172100  1
  Mg  Mg24  1  0.59009900  0.49084100  0.60244600  1
  Mg  Mg25  1  0.67276800  0.13152800  0.58177900  1
  Mg  Mg26  1  0.16033100  0.03513800  0.58488800  1
  Mg  Mg27  1  0.24300000  0.67582600  0.56422100  1
  Mg  Mg28  1  0.34009900  0.55334100  0.66494600  1
  Mg  Mg29  1  0.42276800  0.19402800  0.64427900  1
  Mg  Mg30  1  0.91033100  0.09763800  0.64738800  1
  Mg  Mg31  1  0.99300000  0.73832600  0.62672100  1
  Mg  Mg32  1  0.09009900  0.61584100  0.72744600  1
  Mg  Mg33  1  0.17276800  0.25652800  0.70677900  1
  Mg  Mg34  1  0.66033100  0.16013800  0.70988800  1
  Mg  Mg35  1  0.74300000  0.80082600  0.68922100  1
  Mg  Mg36  1  0.84009900  0.67834100  0.78994600  1
  Mg  Mg37  1  0.92276800  0.31902800  0.76927900  1
  Mg  Mg38  1  0.41033100  0.22263800  0.77238800  1
  Mg  Mg39  1  0.49300000  0.86332600  0.75172100  1
  Cd  Cd40  1  0.00700000  0.47182800  0.24822100  1
  Cd  Cd41  1  0.57609800  0.00733900  0.23094600  1
  Cd  Cd42  1  0.75700000  0.53432800  0.31072100  1
  Cd  Cd43  1  0.32609800  0.06983900  0.29344600  1
  Cd  Cd44  1  0.50700000  0.59682800  0.37322100  1
  Cd  Cd45  1  0.07609800  0.13233900  0.35594600  1
  Cd  Cd46  1  0.25700000  0.65932800  0.43572100  1
  Cd  Cd47  1  0.82609800  0.19483900  0.41844600  1
  Cd  Cd48  1  0.00700000  0.72182800  0.49822100  1
  Cd  Cd49  1  0.57609800  0.25733900  0.48094600  1
  Cd  Cd50  1  0.75700000  0.78432800  0.56072100  1
  Cd  Cd51  1  0.32609800  0.31983900  0.54344600  1
  Cd  Cd52  1  0.50700000  0.84682800  0.62322100  1
  Cd  Cd53  1  0.07609800  0.38233900  0.60594600  1
  Cd  Cd54  1  0.25700000  0.90932800  0.68572100  1
  Cd  Cd55  1  0.82609800  0.44483900  0.66844600  1
  Cd  Cd56  1  0.00700000  0.97182800  0.74822100  1
  Cd  Cd57  1  0.57609800  0.50733900  0.73094600  1
