# generated using pymatgen
data_Mg58In23
_symmetry_space_group_name_H-M   'P 1'
_cell_length_a   9.50418390
_cell_length_b   15.96413630
_cell_length_c   44.93250200
_cell_angle_alpha   88.74178919
_cell_angle_beta   89.64260529
_cell_angle_gamma   74.77278805
_symmetry_Int_Tables_number   1
_chemical_formula_structural   Mg58In23
_chemical_formula_sum   'Mg116 In46'
_cell_volume   6576.49852534
_cell_formula_units_Z   2
loop_
 _symmetry_equiv_pos_site_id
 _symmetry_equiv_pos_as_xyz
  1  'x, y, z'
loop_
 _atom_site_type_symbol
 _atom_site_label
 _atom_site_symmetry_multiplicity
 _atom_site_fract_x
 _atom_site_fract_y
 _atom_site_fract_z
 _atom_site_occupancy
  Mg  Mg0  1  0.28446900  0.31968500  0.29374900  1
  Mg  Mg1  1  0.71790100  0.05590700  0.22768000  1
  Mg  Mg2  1  0.25118500  0.93779600  0.26071400  1
  Mg  Mg3  1  0.64581200  0.17488500  0.28705700  1
  Mg  Mg4  1  0.15655800  0.15070800  0.28437100  1
  Mg  Mg5  1  0.35655800  0.20070800  0.23437100  1
  Mg  Mg6  1  0.84581200  0.22488500  0.23705700  1
  Mg  Mg7  1  0.41640800  0.52282300  0.26076400  1
  Mg  Mg8  1  0.58596200  0.85277000  0.26066400  1
  Mg  Mg9  1  0.98446900  0.86968500  0.24374900  1
  Mg  Mg10  1  0.01790100  0.50590700  0.27768000  1
  Mg  Mg11  1  0.75118500  0.43779600  0.26071400  1
  Mg  Mg12  1  0.34581200  0.72488500  0.23705700  1
  Mg  Mg13  1  0.85655800  0.70070800  0.23437100  1
  Mg  Mg14  1  0.65655800  0.65070800  0.28437100  1
  Mg  Mg15  1  0.14581200  0.67488500  0.28705700  1
  Mg  Mg16  1  0.71640800  0.97282300  0.31076400  1
  Mg  Mg17  1  0.88596200  0.30277000  0.31066400  1
  Mg  Mg18  1  0.88446900  0.21968500  0.39374900  1
  Mg  Mg19  1  0.31790100  0.95590700  0.32768000  1
  Mg  Mg20  1  0.85118500  0.83779600  0.36071400  1
  Mg  Mg21  1  0.05118500  0.88779600  0.31071400  1
  Mg  Mg22  1  0.24581200  0.07488500  0.38705700  1
  Mg  Mg23  1  0.75655800  0.05070800  0.38437100  1
  Mg  Mg24  1  0.95655800  0.10070800  0.33437100  1
  Mg  Mg25  1  0.44581200  0.12488500  0.33705700  1
  Mg  Mg26  1  0.01640800  0.42282300  0.36076400  1
  Mg  Mg27  1  0.18596200  0.75277000  0.36066400  1
  Mg  Mg28  1  0.58446900  0.76968500  0.34374900  1
  Mg  Mg29  1  0.61790100  0.40590700  0.37768000  1
  Mg  Mg30  1  0.55118500  0.38779600  0.31071400  1
  Mg  Mg31  1  0.35118500  0.33779600  0.36071400  1
  Mg  Mg32  1  0.94581200  0.62488500  0.33705700  1
  Mg  Mg33  1  0.45655800  0.60070800  0.33437100  1
  Mg  Mg34  1  0.25655800  0.55070800  0.38437100  1
  Mg  Mg35  1  0.74581200  0.57488500  0.38705700  1
  Mg  Mg36  1  0.31640800  0.87282300  0.41076400  1
  Mg  Mg37  1  0.48596200  0.20277000  0.41066400  1
  Mg  Mg38  1  0.48446900  0.11968500  0.49374900  1
  Mg  Mg39  1  0.91790100  0.85590700  0.42768000  1
  Mg  Mg40  1  0.45118500  0.73779600  0.46071400  1
  Mg  Mg41  1  0.65118500  0.78779600  0.41071400  1
  Mg  Mg42  1  0.84581200  0.97488500  0.48705700  1
  Mg  Mg43  1  0.35655800  0.95070800  0.48437100  1
  Mg  Mg44  1  0.55655800  0.00070800  0.43437100  1
  Mg  Mg45  1  0.04581200  0.02488500  0.43705700  1
  Mg  Mg46  1  0.61640800  0.32282300  0.46076400  1
  Mg  Mg47  1  0.78596200  0.65277000  0.46066400  1
  Mg  Mg48  1  0.18446900  0.66968500  0.44374900  1
  Mg  Mg49  1  0.21790100  0.30590700  0.47768000  1
  Mg  Mg50  1  0.15118500  0.28779600  0.41071400  1
  Mg  Mg51  1  0.95118500  0.23779600  0.46071400  1
  Mg  Mg52  1  0.54581200  0.52488500  0.43705700  1
  Mg  Mg53  1  0.05655800  0.50070800  0.43437100  1
  Mg  Mg54  1  0.85655800  0.45070800  0.48437100  1
  Mg  Mg55  1  0.34581200  0.47488500  0.48705700  1
  Mg  Mg56  1  0.91640800  0.77282300  0.51076400  1
  Mg  Mg57  1  0.08596200  0.10277000  0.51066400  1
  Mg  Mg58  1  0.08446900  0.01968500  0.59374900  1
  Mg  Mg59  1  0.51790100  0.75590700  0.52768000  1
  Mg  Mg60  1  0.05118500  0.63779600  0.56071400  1
  Mg  Mg61  1  0.25118500  0.68779600  0.51071400  1
  Mg  Mg62  1  0.44581200  0.87488500  0.58705700  1
  Mg  Mg63  1  0.95655800  0.85070800  0.58437100  1
  Mg  Mg64  1  0.15655800  0.90070800  0.53437100  1
  Mg  Mg65  1  0.64581200  0.92488500  0.53705700  1
  Mg  Mg66  1  0.21640800  0.22282300  0.56076400  1
  Mg  Mg67  1  0.38596200  0.55277000  0.56066400  1
  Mg  Mg68  1  0.78446900  0.56968500  0.54374900  1
  Mg  Mg69  1  0.81790100  0.20590700  0.57768000  1
  Mg  Mg70  1  0.75118500  0.18779600  0.51071400  1
  Mg  Mg71  1  0.55118500  0.13779600  0.56071400  1
  Mg  Mg72  1  0.14581200  0.42488500  0.53705700  1
  Mg  Mg73  1  0.65655800  0.40070800  0.53437100  1
  Mg  Mg74  1  0.45655800  0.35070800  0.58437100  1
  Mg  Mg75  1  0.94581200  0.37488500  0.58705700  1
  Mg  Mg76  1  0.51640800  0.67282300  0.61076400  1
  Mg  Mg77  1  0.68596200  0.00277000  0.61066400  1
  Mg  Mg78  1  0.68446900  0.91968500  0.69374900  1
  Mg  Mg79  1  0.11790100  0.65590700  0.62768000  1
  Mg  Mg80  1  0.65118500  0.53779600  0.66071400  1
  Mg  Mg81  1  0.85118500  0.58779600  0.61071400  1
  Mg  Mg82  1  0.04581200  0.77488500  0.68705700  1
  Mg  Mg83  1  0.55655800  0.75070800  0.68437100  1
  Mg  Mg84  1  0.75655800  0.80070800  0.63437100  1
  Mg  Mg85  1  0.24581200  0.82488500  0.63705700  1
  Mg  Mg86  1  0.81640800  0.12282300  0.66076400  1
  Mg  Mg87  1  0.98596200  0.45277000  0.66066400  1
  Mg  Mg88  1  0.38446900  0.46968500  0.64374900  1
  Mg  Mg89  1  0.41790100  0.10590700  0.67768000  1
  Mg  Mg90  1  0.35118500  0.08779600  0.61071400  1
  Mg  Mg91  1  0.15118500  0.03779600  0.66071400  1
  Mg  Mg92  1  0.74581200  0.32488500  0.63705700  1
  Mg  Mg93  1  0.25655800  0.30070800  0.63437100  1
  Mg  Mg94  1  0.05655800  0.25070800  0.68437100  1
  Mg  Mg95  1  0.54581200  0.27488500  0.68705700  1
  Mg  Mg96  1  0.11640800  0.57282300  0.71076400  1
  Mg  Mg97  1  0.28596200  0.90277000  0.71066400  1
  Mg  Mg98  1  0.28446900  0.81968500  0.79374900  1
  Mg  Mg99  1  0.71790100  0.55590700  0.72768000  1
  Mg  Mg100  1  0.25118500  0.43779600  0.76071400  1
  Mg  Mg101  1  0.45118500  0.48779600  0.71071400  1
  Mg  Mg102  1  0.64581200  0.67488500  0.78705700  1
  Mg  Mg103  1  0.15655800  0.65070800  0.78437100  1
  Mg  Mg104  1  0.35655800  0.70070800  0.73437100  1
  Mg  Mg105  1  0.84581200  0.72488500  0.73705700  1
  Mg  Mg106  1  0.41640800  0.02282300  0.76076400  1
  Mg  Mg107  1  0.58596200  0.35277000  0.76066400  1
  Mg  Mg108  1  0.98446900  0.36968500  0.74374900  1
  Mg  Mg109  1  0.01790100  0.00590700  0.77768000  1
  Mg  Mg110  1  0.95118500  0.98779600  0.71071400  1
  Mg  Mg111  1  0.75118500  0.93779600  0.76071400  1
  Mg  Mg112  1  0.34581200  0.22488500  0.73705700  1
  Mg  Mg113  1  0.85655800  0.20070800  0.73437100  1
  Mg  Mg114  1  0.65655800  0.15070800  0.78437100  1
  Mg  Mg115  1  0.14581200  0.17488500  0.78705700  1
  In  In116  1  0.45907400  0.04651300  0.27403500  1
  In  In117  1  0.54329700  0.32908000  0.24739300  1
  In  In118  1  0.05670300  0.32684500  0.24962800  1
  In  In119  1  0.94566700  0.04874700  0.27180100  1
  In  In120  1  0.15907400  0.59651300  0.22403500  1
  In  In121  1  0.84329700  0.77908000  0.29739300  1
  In  In122  1  0.05907400  0.94651300  0.37403500  1
  In  In123  1  0.14329700  0.22908000  0.34739300  1
  In  In124  1  0.65670300  0.22684500  0.34962800  1
  In  In125  1  0.54566700  0.94874700  0.37180100  1
  In  In126  1  0.75907400  0.49651300  0.32403500  1
  In  In127  1  0.44329700  0.67908000  0.39739300  1
  In  In128  1  0.35670300  0.77684500  0.29962800  1
  In  In129  1  0.24566700  0.49874700  0.32180100  1
  In  In130  1  0.65907400  0.84651300  0.47403500  1
  In  In131  1  0.74329700  0.12908000  0.44739300  1
  In  In132  1  0.25670300  0.12684500  0.44962800  1
  In  In133  1  0.14566700  0.84874700  0.47180100  1
  In  In134  1  0.35907400  0.39651300  0.42403500  1
  In  In135  1  0.04329700  0.57908000  0.49739300  1
  In  In136  1  0.95670300  0.67684500  0.39962800  1
  In  In137  1  0.84566700  0.39874700  0.42180100  1
  In  In138  1  0.25907400  0.74651300  0.57403500  1
  In  In139  1  0.34329700  0.02908000  0.54739300  1
  In  In140  1  0.85670300  0.02684500  0.54962800  1
  In  In141  1  0.74566700  0.74874700  0.57180100  1
  In  In142  1  0.95907400  0.29651300  0.52403500  1
  In  In143  1  0.64329700  0.47908000  0.59739300  1
  In  In144  1  0.55670300  0.57684500  0.49962800  1
  In  In145  1  0.44566700  0.29874700  0.52180100  1
  In  In146  1  0.85907400  0.64651300  0.67403500  1
  In  In147  1  0.94329700  0.92908000  0.64739300  1
  In  In148  1  0.45670300  0.92684500  0.64962800  1
  In  In149  1  0.34566700  0.64874700  0.67180100  1
  In  In150  1  0.55907400  0.19651300  0.62403500  1
  In  In151  1  0.24329700  0.37908000  0.69739300  1
  In  In152  1  0.15670300  0.47684500  0.59962800  1
  In  In153  1  0.04566700  0.19874700  0.62180100  1
  In  In154  1  0.45907400  0.54651300  0.77403500  1
  In  In155  1  0.54329700  0.82908000  0.74739300  1
  In  In156  1  0.05670300  0.82684500  0.74962800  1
  In  In157  1  0.94566700  0.54874700  0.77180100  1
  In  In158  1  0.15907400  0.09651300  0.72403500  1
  In  In159  1  0.84329700  0.27908000  0.79739300  1
  In  In160  1  0.75670300  0.37684500  0.69962800  1
  In  In161  1  0.64566700  0.09874700  0.72180100  1
