# generated using pymatgen
data_Mg23Ga22
_symmetry_space_group_name_H-M   'P 1'
_cell_length_a   8.03816789
_cell_length_b   8.03816859
_cell_length_c   49.15939500
_cell_angle_alpha   88.74412318
_cell_angle_beta   88.74412307
_cell_angle_gamma   83.19111861
_symmetry_Int_Tables_number   1
_chemical_formula_structural   Mg23Ga22
_chemical_formula_sum   'Mg46 Ga44'
_cell_volume   3152.53743401
_cell_formula_units_Z   2
loop_
 _symmetry_equiv_pos_site_id
 _symmetry_equiv_pos_as_xyz
  1  'x, y, z'
loop_
 _atom_site_type_symbol
 _atom_site_label
 _atom_site_symmetry_multiplicity
 _atom_site_fract_x
 _atom_site_fract_y
 _atom_site_fract_z
 _atom_site_occupancy
  Mg  Mg0  1  0.83525400  0.68982400  0.74624800  1
  Mg  Mg1  1  0.15138900  0.88714200  0.77219200  1
  Mg  Mg2  1  0.77079800  0.03504500  0.78673500  1
  Mg  Mg3  1  0.90122100  0.04665100  0.71982400  1
  Mg  Mg4  1  0.27811000  0.13267900  0.71767600  1
  Mg  Mg5  1  0.60853300  0.34428600  0.75076500  1
  Mg  Mg6  1  0.22794200  0.49218900  0.76530800  1
  Mg  Mg7  1  0.54407700  0.68950700  0.79125200  1
  Mg  Mg8  1  0.63525400  0.48982400  0.64624800  1
  Mg  Mg9  1  0.95138900  0.68714200  0.67219200  1
  Mg  Mg10  1  0.57079800  0.83504500  0.68673500  1
  Mg  Mg11  1  0.70122100  0.84665100  0.61982400  1
  Mg  Mg12  1  0.07811000  0.93267900  0.61767600  1
  Mg  Mg13  1  0.40853300  0.14428600  0.65076500  1
  Mg  Mg14  1  0.02794200  0.29218900  0.66530800  1
  Mg  Mg15  1  0.34407700  0.48950700  0.69125200  1
  Mg  Mg16  1  0.43525400  0.28982400  0.54624800  1
  Mg  Mg17  1  0.75138900  0.48714200  0.57219200  1
  Mg  Mg18  1  0.37079800  0.63504500  0.58673500  1
  Mg  Mg19  1  0.50122100  0.64665100  0.51982400  1
  Mg  Mg20  1  0.87811000  0.73267900  0.51767600  1
  Mg  Mg21  1  0.20853300  0.94428600  0.55076500  1
  Mg  Mg22  1  0.82794200  0.09218900  0.56530800  1
  Mg  Mg23  1  0.14407700  0.28950700  0.59125200  1
  Mg  Mg24  1  0.23525400  0.08982400  0.44624800  1
  Mg  Mg25  1  0.55138900  0.28714200  0.47219200  1
  Mg  Mg26  1  0.17079800  0.43504500  0.48673500  1
  Mg  Mg27  1  0.30122100  0.44665100  0.41982400  1
  Mg  Mg28  1  0.67811000  0.53267900  0.41767600  1
  Mg  Mg29  1  0.00853300  0.74428600  0.45076500  1
  Mg  Mg30  1  0.62794200  0.89218900  0.46530800  1
  Mg  Mg31  1  0.94407700  0.08950700  0.49125200  1
  Mg  Mg32  1  0.03525400  0.88982400  0.34624800  1
  Mg  Mg33  1  0.35138900  0.08714200  0.37219200  1
  Mg  Mg34  1  0.97079800  0.23504500  0.38673500  1
  Mg  Mg35  1  0.10122100  0.24665100  0.31982400  1
  Mg  Mg36  1  0.47811000  0.33267900  0.31767600  1
  Mg  Mg37  1  0.80853300  0.54428600  0.35076500  1
  Mg  Mg38  1  0.42794200  0.69218900  0.36530800  1
  Mg  Mg39  1  0.74407700  0.88950700  0.39125200  1
  Mg  Mg40  1  0.83525400  0.68982400  0.24624800  1
  Mg  Mg41  1  0.15138900  0.88714200  0.27219200  1
  Mg  Mg42  1  0.77079800  0.03504500  0.28673500  1
  Mg  Mg43  1  0.60853300  0.34428600  0.25076500  1
  Mg  Mg44  1  0.22794200  0.49218900  0.26530800  1
  Mg  Mg45  1  0.54407700  0.68950700  0.29125200  1
  Ga  Ga46  1  0.46549300  0.67950100  0.73579500  1
  Ga  Ga47  1  0.14784800  0.75036700  0.71996900  1
  Ga  Ga48  1  0.57916000  0.97664200  0.74137000  1
  Ga  Ga49  1  0.36151600  0.14750800  0.77554400  1
  Ga  Ga50  1  0.01781500  0.23182300  0.76195600  1
  Ga  Ga51  1  0.80017000  0.40268900  0.79613000  1
  Ga  Ga52  1  0.03148200  0.42896400  0.71753100  1
  Ga  Ga53  1  0.71383800  0.49983000  0.70170500  1
  Ga  Ga54  1  0.26549300  0.47950100  0.63579500  1
  Ga  Ga55  1  0.94784800  0.55036700  0.61996900  1
  Ga  Ga56  1  0.37916000  0.77664200  0.64137000  1
  Ga  Ga57  1  0.16151600  0.94750800  0.67554400  1
  Ga  Ga58  1  0.81781500  0.03182300  0.66195600  1
  Ga  Ga59  1  0.60017000  0.20268900  0.69613000  1
  Ga  Ga60  1  0.83148200  0.22896400  0.61753100  1
  Ga  Ga61  1  0.51383800  0.29983000  0.60170500  1
  Ga  Ga62  1  0.06549300  0.27950100  0.53579500  1
  Ga  Ga63  1  0.74784800  0.35036700  0.51996900  1
  Ga  Ga64  1  0.17916000  0.57664200  0.54137000  1
  Ga  Ga65  1  0.96151600  0.74750800  0.57554400  1
  Ga  Ga66  1  0.61781500  0.83182300  0.56195600  1
  Ga  Ga67  1  0.40017000  0.00268900  0.59613000  1
  Ga  Ga68  1  0.63148200  0.02896400  0.51753100  1
  Ga  Ga69  1  0.31383800  0.09983000  0.50170500  1
  Ga  Ga70  1  0.86549300  0.07950100  0.43579500  1
  Ga  Ga71  1  0.54784800  0.15036700  0.41996900  1
  Ga  Ga72  1  0.97916000  0.37664200  0.44137000  1
  Ga  Ga73  1  0.76151600  0.54750800  0.47554400  1
  Ga  Ga74  1  0.41781500  0.63182300  0.46195600  1
  Ga  Ga75  1  0.20017000  0.80268900  0.49613000  1
  Ga  Ga76  1  0.43148200  0.82896400  0.41753100  1
  Ga  Ga77  1  0.11383800  0.89983000  0.40170500  1
  Ga  Ga78  1  0.66549300  0.87950100  0.33579500  1
  Ga  Ga79  1  0.34784800  0.95036700  0.31996900  1
  Ga  Ga80  1  0.77916000  0.17664200  0.34137000  1
  Ga  Ga81  1  0.56151600  0.34750800  0.37554400  1
  Ga  Ga82  1  0.21781500  0.43182300  0.36195600  1
  Ga  Ga83  1  0.00017000  0.60268900  0.39613000  1
  Ga  Ga84  1  0.23148200  0.62896400  0.31753100  1
  Ga  Ga85  1  0.91383800  0.69983000  0.30170500  1
  Ga  Ga86  1  0.57916000  0.97664200  0.24137000  1
  Ga  Ga87  1  0.36151600  0.14750800  0.27554400  1
  Ga  Ga88  1  0.01781500  0.23182300  0.26195600  1
  Ga  Ga89  1  0.80017000  0.40268900  0.29613000  1
