# generated using pymatgen
data_Mg7P30
_symmetry_space_group_name_H-M   'P 1'
_cell_length_a   7.29415393
_cell_length_b   9.16199215
_cell_length_c   40.89486900
_cell_angle_alpha   88.10754905
_cell_angle_beta   87.28743917
_cell_angle_gamma   107.72281959
_symmetry_Int_Tables_number   1
_chemical_formula_structural   Mg7P30
_chemical_formula_sum   'Mg14 P60'
_cell_volume   2597.10717612
_cell_formula_units_Z   2
loop_
 _symmetry_equiv_pos_site_id
 _symmetry_equiv_pos_as_xyz
  1  'x, y, z'
loop_
 _atom_site_type_symbol
 _atom_site_label
 _atom_site_symmetry_multiplicity
 _atom_site_fract_x
 _atom_site_fract_y
 _atom_site_fract_z
 _atom_site_occupancy
  Mg  Mg0  1  0.32322400  0.80606600  0.24615400  1
  Mg  Mg1  1  0.32322400  0.30606600  0.24615400  1
  Mg  Mg2  1  0.70783900  0.57529600  0.32307700  1
  Mg  Mg3  1  0.70783900  0.07529600  0.32307700  1
  Mg  Mg4  1  0.09245500  0.34452700  0.40000000  1
  Mg  Mg5  1  0.09245500  0.84452700  0.40000000  1
  Mg  Mg6  1  0.47707000  0.11375800  0.47692300  1
  Mg  Mg7  1  0.47707000  0.61375800  0.47692300  1
  Mg  Mg8  1  0.86168600  0.88298900  0.55384600  1
  Mg  Mg9  1  0.86168600  0.38298900  0.55384600  1
  Mg  Mg10  1  0.24630100  0.65221900  0.63076900  1
  Mg  Mg11  1  0.24630100  0.15221900  0.63076900  1
  Mg  Mg12  1  0.63091600  0.42145000  0.70769200  1
  Mg  Mg13  1  0.63091600  0.92145000  0.70769200  1
  P  P14  1  0.99291000  0.10616000  0.23068200  1
  P  P15  1  0.49371600  0.10186400  0.22966100  1
  P  P16  1  0.26892200  0.73674000  0.18470300  1
  P  P17  1  0.76811700  0.74103600  0.18572300  1
  P  P18  1  0.88326700  0.43144600  0.23754000  1
  P  P19  1  0.67979200  0.73071800  0.23809000  1
  P  P20  1  0.76318100  0.18068500  0.25476800  1
  P  P21  1  0.96665600  0.88141300  0.25421800  1
  P  P22  1  0.37752600  0.87539100  0.30760500  1
  P  P23  1  0.87833200  0.87109500  0.30658500  1
  P  P24  1  0.65353800  0.50597100  0.26162600  1
  P  P25  1  0.15273200  0.51026700  0.26264600  1
  P  P26  1  0.26788300  0.20067700  0.31446300  1
  P  P27  1  0.06440700  0.49994900  0.31501300  1
  P  P28  1  0.14779600  0.94991600  0.33169100  1
  P  P29  1  0.35127200  0.65064300  0.33114100  1
  P  P30  1  0.76214100  0.64462200  0.38452800  1
  P  P31  1  0.26294700  0.64032600  0.38350800  1
  P  P32  1  0.03815300  0.27520200  0.33854900  1
  P  P33  1  0.53734700  0.27949800  0.33956900  1
  P  P34  1  0.65249800  0.96990800  0.39138600  1
  P  P35  1  0.44902300  0.26918000  0.39193600  1
  P  P36  1  0.53241200  0.71914600  0.40861400  1
  P  P37  1  0.73588700  0.41987400  0.40806400  1
  P  P38  1  0.14675600  0.41385200  0.46145100  1
  P  P39  1  0.64756200  0.40955600  0.46043100  1
  P  P40  1  0.42276900  0.04443300  0.41547200  1
  P  P41  1  0.92196300  0.04872900  0.41649200  1
  P  P42  1  0.03711300  0.73913900  0.46830900  1
  P  P43  1  0.83363800  0.03841100  0.46885900  1
  P  P44  1  0.91702700  0.48837700  0.48553700  1
  P  P45  1  0.12050300  0.18910500  0.48498700  1
  P  P46  1  0.53137200  0.18308300  0.53837400  1
  P  P47  1  0.03217800  0.17878700  0.53735400  1
  P  P48  1  0.80738400  0.81366300  0.49239500  1
  P  P49  1  0.30657800  0.81795900  0.49341500  1
  P  P50  1  0.42172900  0.50836900  0.54523200  1
  P  P51  1  0.21825300  0.80764200  0.54578200  1
  P  P52  1  0.30164300  0.25760800  0.56246000  1
  P  P53  1  0.50511800  0.95833600  0.56191000  1
  P  P54  1  0.91598700  0.95231400  0.61529700  1
  P  P55  1  0.41679300  0.94801800  0.61427700  1
  P  P56  1  0.19199900  0.58289400  0.56931800  1
  P  P57  1  0.69119300  0.58719000  0.57033900  1
  P  P58  1  0.80634400  0.27760000  0.62215600  1
  P  P59  1  0.60286900  0.57687200  0.62270500  1
  P  P60  1  0.68625800  0.02683900  0.63938300  1
  P  P61  1  0.88973300  0.72756600  0.63883300  1
  P  P62  1  0.30060300  0.72154500  0.69222000  1
  P  P63  1  0.80140900  0.71724900  0.69120000  1
  P  P64  1  0.57661500  0.35212500  0.64624100  1
  P  P65  1  0.07580900  0.35642100  0.64726200  1
  P  P66  1  0.19095900  0.04683100  0.69907900  1
  P  P67  1  0.98748400  0.34610300  0.69962800  1
  P  P68  1  0.07087300  0.79607000  0.71630600  1
  P  P69  1  0.27434900  0.49679700  0.71575600  1
  P  P70  1  0.68521800  0.49077500  0.76914300  1
  P  P71  1  0.18602400  0.48647900  0.76812300  1
  P  P72  1  0.96123000  0.12135600  0.72316400  1
  P  P73  1  0.46042400  0.12565200  0.72418500  1
