# generated using pymatgen
data_Mg11Sb7
_symmetry_space_group_name_H-M   'P 1'
_cell_length_a   4.60697300
_cell_length_b   8.59897491
_cell_length_c   45.45633900
_cell_angle_alpha   90.15053946
_cell_angle_beta   90.00000000
_cell_angle_gamma   74.46189089
_symmetry_Int_Tables_number   1
_chemical_formula_structural   Mg11Sb7
_chemical_formula_sum   'Mg22 Sb14'
_cell_volume   1734.94412858
_cell_formula_units_Z   2
loop_
 _symmetry_equiv_pos_site_id
 _symmetry_equiv_pos_as_xyz
  1  'x, y, z'
loop_
 _atom_site_type_symbol
 _atom_site_label
 _atom_site_symmetry_multiplicity
 _atom_site_fract_x
 _atom_site_fract_y
 _atom_site_fract_z
 _atom_site_occupancy
  Mg  Mg0  1  0.63612000  0.78167200  0.26153800  1
  Mg  Mg1  1  0.25150400  0.55090200  0.33846200  1
  Mg  Mg2  1  0.03335000  0.98721200  0.31542600  1
  Mg  Mg3  1  0.85427400  0.34536300  0.28457400  1
  Mg  Mg4  1  0.86688900  0.32013300  0.41538500  1
  Mg  Mg5  1  0.64873400  0.75644200  0.39234900  1
  Mg  Mg6  1  0.46965900  0.11459300  0.36149700  1
  Mg  Mg7  1  0.48227300  0.08936400  0.49230800  1
  Mg  Mg8  1  0.26411900  0.52567300  0.46927200  1
  Mg  Mg9  1  0.08504300  0.88382400  0.43842000  1
  Mg  Mg10  1  0.09765800  0.85859500  0.56923100  1
  Mg  Mg11  1  0.87950300  0.29490400  0.54619500  1
  Mg  Mg12  1  0.70042800  0.65305500  0.51534300  1
  Mg  Mg13  1  0.71304300  0.62782600  0.64615400  1
  Mg  Mg14  1  0.49488800  0.06413500  0.62311800  1
  Mg  Mg15  1  0.31581300  0.42228600  0.59226700  1
  Mg  Mg16  1  0.32842700  0.39705600  0.72307700  1
  Mg  Mg17  1  0.11027300  0.83336600  0.70004100  1
  Mg  Mg18  1  0.93119700  0.19151600  0.66919000  1
  Mg  Mg19  1  0.94381200  0.16628700  0.80000000  1
  Mg  Mg20  1  0.72565700  0.60259600  0.77696400  1
  Mg  Mg21  1  0.54658200  0.96074700  0.74611300  1
  Sb  Sb22  1  0.26131600  0.53127800  0.26983200  1
  Sb  Sb23  1  0.62630700  0.80129600  0.33016800  1
  Sb  Sb24  1  0.87670100  0.30050900  0.34675500  1
  Sb  Sb25  1  0.24169200  0.57052700  0.40709100  1
  Sb  Sb26  1  0.49208600  0.06974000  0.42367900  1
  Sb  Sb27  1  0.85707600  0.33975800  0.48401400  1
  Sb  Sb28  1  0.10747000  0.83897000  0.50060200  1
  Sb  Sb29  1  0.47246100  0.10898900  0.56093700  1
  Sb  Sb30  1  0.72285500  0.60820100  0.57752500  1
  Sb  Sb31  1  0.08784600  0.87821900  0.63786000  1
  Sb  Sb32  1  0.33823900  0.37743200  0.65444800  1
  Sb  Sb33  1  0.70323000  0.64745000  0.71478300  1
  Sb  Sb34  1  0.95362400  0.14666300  0.73137100  1
  Sb  Sb35  1  0.31861500  0.41668100  0.79170600  1
