# generated using pymatgen
data_MgZn3
_symmetry_space_group_name_H-M   'P 1'
_cell_length_a   5.75474300
_cell_length_b   7.35431274
_cell_length_c   43.83644800
_cell_angle_alpha   90.39897649
_cell_angle_beta   90.00000000
_cell_angle_gamma   66.96772378
_symmetry_Int_Tables_number   1
_chemical_formula_structural   MgZn3
_chemical_formula_sum   'Mg16 Zn48'
_cell_volume   1707.31283613
_cell_formula_units_Z   16
loop_
 _symmetry_equiv_pos_site_id
 _symmetry_equiv_pos_as_xyz
  1  'x, y, z'
loop_
 _atom_site_type_symbol
 _atom_site_label
 _atom_site_symmetry_multiplicity
 _atom_site_fract_x
 _atom_site_fract_y
 _atom_site_fract_z
 _atom_site_occupancy
  Mg  Mg0  1  0.53205100  0.93589700  0.23717900  1
  Mg  Mg1  1  0.23717900  0.52564100  0.22435900  1
  Mg  Mg2  1  0.30128200  0.39743600  0.31410300  1
  Mg  Mg3  1  0.00641000  0.98717900  0.30128200  1
  Mg  Mg4  1  0.07051300  0.85897400  0.39102600  1
  Mg  Mg5  1  0.77564100  0.44871800  0.37820500  1
  Mg  Mg6  1  0.83974400  0.32051300  0.46794900  1
  Mg  Mg7  1  0.54487200  0.91025600  0.45512800  1
  Mg  Mg8  1  0.60897400  0.78205100  0.54487200  1
  Mg  Mg9  1  0.31410300  0.37179500  0.53205100  1
  Mg  Mg10  1  0.37820500  0.24359000  0.62179500  1
  Mg  Mg11  1  0.08333300  0.83333300  0.60897400  1
  Mg  Mg12  1  0.14743600  0.70512800  0.69871800  1
  Mg  Mg13  1  0.85256400  0.29487200  0.68589700  1
  Mg  Mg14  1  0.91666700  0.16666700  0.77564100  1
  Mg  Mg15  1  0.62179500  0.75641000  0.76282100  1
  Zn  Zn16  1  0.13956300  0.20168400  0.19921000  1
  Zn  Zn17  1  0.02860700  0.94278600  0.23619500  1
  Zn  Zn18  1  0.65875300  0.20168400  0.19921000  1
  Zn  Zn19  1  0.74062400  0.51875200  0.22534300  1
  Zn  Zn20  1  0.11047800  0.25985500  0.26232800  1
  Zn  Zn21  1  0.62966800  0.25985500  0.26232800  1
  Zn  Zn22  1  0.90879400  0.66322200  0.27613300  1
  Zn  Zn23  1  0.79783800  0.40432500  0.31311800  1
  Zn  Zn24  1  0.42798400  0.66322200  0.27613300  1
  Zn  Zn25  1  0.50985500  0.98029100  0.30226600  1
  Zn  Zn26  1  0.87970800  0.72139300  0.33925200  1
  Zn  Zn27  1  0.39889900  0.72139300  0.33925200  1
  Zn  Zn28  1  0.67802500  0.12476100  0.35305600  1
  Zn  Zn29  1  0.56706800  0.86586300  0.39004200  1
  Zn  Zn30  1  0.19721500  0.12476100  0.35305600  1
  Zn  Zn31  1  0.27908500  0.44182900  0.37918900  1
  Zn  Zn32  1  0.64893900  0.18293200  0.41617500  1
  Zn  Zn33  1  0.16812900  0.18293200  0.41617500  1
  Zn  Zn34  1  0.44725500  0.58629900  0.42997900  1
  Zn  Zn35  1  0.33629900  0.32740200  0.46696500  1
  Zn  Zn36  1  0.96644500  0.58629900  0.42997900  1
  Zn  Zn37  1  0.04831600  0.90336800  0.45611200  1
  Zn  Zn38  1  0.41817000  0.64447000  0.49309800  1
  Zn  Zn39  1  0.93736000  0.64447000  0.49309800  1
  Zn  Zn40  1  0.21648600  0.04783800  0.50690200  1
  Zn  Zn41  1  0.10553000  0.78894000  0.54388800  1
  Zn  Zn42  1  0.73567600  0.04783800  0.50690200  1
  Zn  Zn43  1  0.81754700  0.36490600  0.53303500  1
  Zn  Zn44  1  0.18740100  0.10600800  0.57002100  1
  Zn  Zn45  1  0.70659100  0.10600800  0.57002100  1
  Zn  Zn46  1  0.98571700  0.50937600  0.58382500  1
  Zn  Zn47  1  0.87476100  0.25047900  0.62081100  1
  Zn  Zn48  1  0.50490700  0.50937600  0.58382500  1
  Zn  Zn49  1  0.58677800  0.82644500  0.60995800  1
  Zn  Zn50  1  0.95663100  0.56754700  0.64694400  1
  Zn  Zn51  1  0.47582200  0.56754700  0.64694400  1
  Zn  Zn52  1  0.75494800  0.97091500  0.66074800  1
  Zn  Zn53  1  0.64399200  0.71201700  0.69773400  1
  Zn  Zn54  1  0.27413800  0.97091500  0.66074800  1
  Zn  Zn55  1  0.35600800  0.28798300  0.68688200  1
  Zn  Zn56  1  0.72586200  0.02908500  0.72386700  1
  Zn  Zn57  1  0.24505200  0.02908500  0.72386700  1
  Zn  Zn58  1  0.52417800  0.43245300  0.73767200  1
  Zn  Zn59  1  0.41322200  0.17355500  0.77465700  1
  Zn  Zn60  1  0.04336900  0.43245300  0.73767200  1
  Zn  Zn61  1  0.12523900  0.74952100  0.76380500  1
  Zn  Zn62  1  0.49509300  0.49062400  0.80079000  1
  Zn  Zn63  1  0.01428300  0.49062400  0.80079000  1
