# generated using pymatgen
data_Mg6Hg11
_symmetry_space_group_name_H-M   'P 1'
_cell_length_a   3.51707100
_cell_length_b   7.04379443
_cell_length_c   55.94811800
_cell_angle_alpha   88.10027884
_cell_angle_beta   90.00000000
_cell_angle_gamma   90.00000000
_symmetry_Int_Tables_number   1
_chemical_formula_structural   Mg6Hg11
_chemical_formula_sum   'Mg12 Hg22'
_cell_volume   1385.27031183
_cell_formula_units_Z   2
loop_
 _symmetry_equiv_pos_site_id
 _symmetry_equiv_pos_as_xyz
  1  'x, y, z'
loop_
 _atom_site_type_symbol
 _atom_site_label
 _atom_site_symmetry_multiplicity
 _atom_site_fract_x
 _atom_site_fract_y
 _atom_site_fract_z
 _atom_site_occupancy
  Mg  Mg0  1  0.50000000  0.04995300  0.26868700  1
  Mg  Mg1  1  0.00000000  0.23712000  0.36464600  1
  Mg  Mg2  1  0.00000000  0.74995300  0.36868700  1
  Mg  Mg3  1  0.50000000  0.53712000  0.26464600  1
  Mg  Mg4  1  0.50000000  0.44995300  0.46868700  1
  Mg  Mg5  1  0.00000000  0.63712000  0.56464600  1
  Mg  Mg6  1  0.00000000  0.14995300  0.56868700  1
  Mg  Mg7  1  0.50000000  0.93712000  0.46464600  1
  Mg  Mg8  1  0.50000000  0.84995300  0.66868700  1
  Mg  Mg9  1  0.00000000  0.03712000  0.76464600  1
  Mg  Mg10  1  0.00000000  0.54995300  0.76868700  1
  Mg  Mg11  1  0.50000000  0.33712000  0.66464600  1
  Hg  Hg12  1  0.00000000  0.77550300  0.29688000  1
  Hg  Hg13  1  0.50000000  0.51157100  0.33645300  1
  Hg  Hg14  1  0.00000000  0.29621200  0.29881100  1
  Hg  Hg15  1  0.50000000  0.99086200  0.33452200  1
  Hg  Hg16  1  0.50000000  0.47550300  0.39688000  1
  Hg  Hg17  1  0.00000000  0.81157100  0.23645300  1
  Hg  Hg18  1  0.00000000  0.17550300  0.49688000  1
  Hg  Hg19  1  0.50000000  0.91157100  0.53645300  1
  Hg  Hg20  1  0.00000000  0.69621200  0.49881100  1
  Hg  Hg21  1  0.50000000  0.39086200  0.53452200  1
  Hg  Hg22  1  0.50000000  0.87550300  0.59688000  1
  Hg  Hg23  1  0.00000000  0.21157100  0.43645300  1
  Hg  Hg24  1  0.50000000  0.99621200  0.39881100  1
  Hg  Hg25  1  0.00000000  0.69086200  0.43452200  1
  Hg  Hg26  1  0.00000000  0.57550300  0.69688000  1
  Hg  Hg27  1  0.50000000  0.31157100  0.73645300  1
  Hg  Hg28  1  0.00000000  0.09621200  0.69881100  1
  Hg  Hg29  1  0.50000000  0.79086200  0.73452200  1
  Hg  Hg30  1  0.50000000  0.27550300  0.79688000  1
  Hg  Hg31  1  0.00000000  0.61157100  0.63645300  1
  Hg  Hg32  1  0.50000000  0.39621200  0.59881100  1
  Hg  Hg33  1  0.00000000  0.09086200  0.63452200  1
