# generated using pymatgen
data_Y2Mg
_symmetry_space_group_name_H-M   'P 1'
_cell_length_a   6.64056910
_cell_length_b   8.78578758
_cell_length_c   42.54886000
_cell_angle_alpha   91.18845685
_cell_angle_beta   92.24944289
_cell_angle_gamma   96.83526682
_symmetry_Int_Tables_number   1
_chemical_formula_structural   Y2Mg
_chemical_formula_sum   'Y36 Mg18'
_cell_volume   2462.06112541
_cell_formula_units_Z   18
loop_
 _symmetry_equiv_pos_site_id
 _symmetry_equiv_pos_as_xyz
  1  'x, y, z'
loop_
 _atom_site_type_symbol
 _atom_site_label
 _atom_site_symmetry_multiplicity
 _atom_site_fract_x
 _atom_site_fract_y
 _atom_site_fract_z
 _atom_site_occupancy
  Y  Y0  1  0.70444500  0.37107200  0.18996000  1
  Y  Y1  1  0.61365800  0.75826000  0.21265700  1
  Y  Y2  1  0.00984100  0.05749900  0.23861100  1
  Y  Y3  1  0.10062800  0.67031100  0.21591400  1
  Y  Y4  1  0.41873000  0.44250100  0.26138900  1
  Y  Y5  1  0.32794300  0.82968900  0.28408600  1
  Y  Y6  1  0.72412700  0.12892800  0.31004000  1
  Y  Y7  1  0.81491400  0.74174000  0.28734300  1
  Y  Y8  1  0.13301600  0.51392900  0.33281700  1
  Y  Y9  1  0.04222900  0.90111700  0.35551400  1
  Y  Y10  1  0.43841300  0.20035600  0.38146800  1
  Y  Y11  1  0.52920000  0.81316800  0.35877200  1
  Y  Y12  1  0.84730200  0.58535800  0.40424600  1
  Y  Y13  1  0.75651500  0.97254600  0.42694300  1
  Y  Y14  1  0.15269800  0.27178500  0.45289700  1
  Y  Y15  1  0.24348500  0.88459700  0.43020000  1
  Y  Y16  1  0.56158700  0.65678700  0.47567500  1
  Y  Y17  1  0.47080000  0.04397500  0.49837100  1
  Y  Y18  1  0.86698400  0.34321300  0.52432500  1
  Y  Y19  1  0.95777100  0.95602500  0.50162900  1
  Y  Y20  1  0.27587300  0.72821500  0.54710300  1
  Y  Y21  1  0.18508600  0.11540300  0.56980000  1
  Y  Y22  1  0.58127000  0.41464200  0.59575400  1
  Y  Y23  1  0.67205700  0.02745400  0.57305700  1
  Y  Y24  1  0.99015900  0.79964400  0.61853200  1
  Y  Y25  1  0.89937200  0.18683200  0.64122800  1
  Y  Y26  1  0.29555500  0.48607100  0.66718300  1
  Y  Y27  1  0.38634200  0.09888300  0.64448600  1
  Y  Y28  1  0.70444500  0.87107200  0.68996000  1
  Y  Y29  1  0.61365800  0.25826000  0.71265700  1
  Y  Y30  1  0.00984100  0.55749900  0.73861100  1
  Y  Y31  1  0.10062800  0.17031100  0.71591400  1
  Y  Y32  1  0.41873000  0.94250100  0.76138900  1
  Y  Y33  1  0.32794300  0.32968900  0.78408600  1
  Y  Y34  1  0.72412700  0.62892800  0.81004000  1
  Y  Y35  1  0.81491400  0.24174000  0.78734300  1
  Mg  Mg36  1  0.51642000  0.10190600  0.23696600  1
  Mg  Mg37  1  0.19786600  0.32666500  0.19160500  1
  Mg  Mg38  1  0.23070600  0.17333500  0.30839500  1
  Mg  Mg39  1  0.91215100  0.39809400  0.26303400  1
  Mg  Mg40  1  0.94499100  0.24476300  0.37982400  1
  Mg  Mg41  1  0.62643700  0.46952300  0.33446200  1
  Mg  Mg42  1  0.65927700  0.31619200  0.45125200  1
  Mg  Mg43  1  0.34072300  0.54095100  0.40589100  1
  Mg  Mg44  1  0.37356300  0.38762000  0.52268100  1
  Mg  Mg45  1  0.05500900  0.61238000  0.47731900  1
  Mg  Mg46  1  0.08784900  0.45904900  0.59410900  1
  Mg  Mg47  1  0.76929400  0.68380800  0.54874800  1
  Mg  Mg48  1  0.80213400  0.53047700  0.66553800  1
  Mg  Mg49  1  0.48358000  0.75523700  0.62017600  1
  Mg  Mg50  1  0.51642000  0.60190600  0.73696600  1
  Mg  Mg51  1  0.19786600  0.82666500  0.69160500  1
  Mg  Mg52  1  0.23070600  0.67333500  0.80839500  1
  Mg  Mg53  1  0.91215100  0.89809400  0.76303400  1
