# generated using pymatgen
data_MgHg2
_symmetry_space_group_name_H-M   'P 1'
_cell_length_a   6.17056499
_cell_length_b   7.04379350
_cell_length_c   43.77768600
_cell_angle_alpha   85.82328324
_cell_angle_beta   86.21546991
_cell_angle_gamma   71.79623259
_symmetry_Int_Tables_number   1
_chemical_formula_structural   MgHg2
_chemical_formula_sum   'Mg16 Hg32'
_cell_volume   1800.85112327
_cell_formula_units_Z   16
loop_
 _symmetry_equiv_pos_site_id
 _symmetry_equiv_pos_as_xyz
  1  'x, y, z'
loop_
 _atom_site_type_symbol
 _atom_site_label
 _atom_site_symmetry_multiplicity
 _atom_site_fract_x
 _atom_site_fract_y
 _atom_site_fract_z
 _atom_site_occupancy
  Mg  Mg0  1  0.90442400  0.30016300  0.77000800  1
  Mg  Mg1  1  0.94173000  0.77676000  0.76845400  1
  Mg  Mg2  1  0.75057800  0.37708600  0.69308500  1
  Mg  Mg3  1  0.78788400  0.85368300  0.69153000  1
  Mg  Mg4  1  0.59673200  0.45400900  0.61616200  1
  Mg  Mg5  1  0.63403700  0.93060600  0.61460700  1
  Mg  Mg6  1  0.44288600  0.53093200  0.53923900  1
  Mg  Mg7  1  0.48019100  0.00752900  0.53768400  1
  Mg  Mg8  1  0.28904000  0.60785500  0.46231600  1
  Mg  Mg9  1  0.32634500  0.08445200  0.46076100  1
  Mg  Mg10  1  0.13519300  0.68477800  0.38539300  1
  Mg  Mg11  1  0.17249900  0.16137500  0.38383800  1
  Mg  Mg12  1  0.98134700  0.76170100  0.30847000  1
  Mg  Mg13  1  0.01865300  0.23829900  0.30691500  1
  Mg  Mg14  1  0.82750100  0.83862500  0.23154600  1
  Mg  Mg15  1  0.86480700  0.31522200  0.22999200  1
  Hg  Hg16  1  0.56726100  0.13790900  0.74239000  1
  Hg  Hg17  1  0.27889300  0.93901500  0.79607200  1
  Hg  Hg18  1  0.54943500  0.66366800  0.74313300  1
  Hg  Hg19  1  0.29671800  0.41325500  0.79532900  1
  Hg  Hg20  1  0.41341500  0.21483200  0.66546700  1
  Hg  Hg21  1  0.12504700  0.01593800  0.71914900  1
  Hg  Hg22  1  0.39558900  0.74059100  0.66620900  1
  Hg  Hg23  1  0.14287200  0.49017800  0.71840600  1
  Hg  Hg24  1  0.25956900  0.29175500  0.58854400  1
  Hg  Hg25  1  0.97120100  0.09286100  0.64222600  1
  Hg  Hg26  1  0.24174300  0.81751400  0.58928600  1
  Hg  Hg27  1  0.98902600  0.56710100  0.64148300  1
  Hg  Hg28  1  0.10572200  0.36867800  0.51162100  1
  Hg  Hg29  1  0.81735400  0.16978400  0.56530300  1
  Hg  Hg30  1  0.08789700  0.89443700  0.51236300  1
  Hg  Hg31  1  0.83518000  0.64402400  0.56456000  1
  Hg  Hg32  1  0.95187600  0.44560100  0.43469700  1
  Hg  Hg33  1  0.66350800  0.24670700  0.48837900  1
  Hg  Hg34  1  0.93405100  0.97136000  0.43544000  1
  Hg  Hg35  1  0.68133400  0.72094700  0.48763700  1
  Hg  Hg36  1  0.79803000  0.52252400  0.35777400  1
  Hg  Hg37  1  0.50966200  0.32363000  0.41145600  1
  Hg  Hg38  1  0.78020500  0.04828400  0.35851700  1
  Hg  Hg39  1  0.52748800  0.79787000  0.41071400  1
  Hg  Hg40  1  0.64418400  0.59944700  0.28085100  1
  Hg  Hg41  1  0.35581600  0.40055300  0.33453300  1
  Hg  Hg42  1  0.62635800  0.12520700  0.28159400  1
  Hg  Hg43  1  0.37364200  0.87479300  0.33379100  1
  Hg  Hg44  1  0.49033800  0.67637000  0.20392800  1
  Hg  Hg45  1  0.20197000  0.47747600  0.25761000  1
  Hg  Hg46  1  0.47251200  0.20213000  0.20467100  1
  Hg  Hg47  1  0.21979500  0.95171600  0.25686700  1
