# generated using pymatgen
data_Mg5Pd2
_symmetry_space_group_name_H-M   'P 1'
_cell_length_a   8.02302000
_cell_length_b   15.30931400
_cell_length_c   44.19418400
_cell_angle_alpha   90.00000000
_cell_angle_beta   90.00000000
_cell_angle_gamma   90.00000000
_symmetry_Int_Tables_number   1
_chemical_formula_structural   Mg5Pd2
_chemical_formula_sum   'Mg120 Pd48'
_cell_volume   5428.23605101
_cell_formula_units_Z   24
loop_
 _symmetry_equiv_pos_site_id
 _symmetry_equiv_pos_as_xyz
  1  'x, y, z'
loop_
 _atom_site_type_symbol
 _atom_site_label
 _atom_site_symmetry_multiplicity
 _atom_site_fract_x
 _atom_site_fract_y
 _atom_site_fract_z
 _atom_site_occupancy
  Mg  Mg0  1  0.06459400  0.34577500  0.20746500  1
  Mg  Mg1  1  0.06459400  0.34577500  0.29253500  1
  Mg  Mg2  1  0.06459400  0.55845000  0.25000000  1
  Mg  Mg3  1  0.93540600  0.15422500  0.29253500  1
  Mg  Mg4  1  0.93540600  0.15422500  0.20746500  1
  Mg  Mg5  1  0.93540600  0.94155000  0.25000000  1
  Mg  Mg6  1  0.56459400  0.15422500  0.29253500  1
  Mg  Mg7  1  0.56459400  0.15422500  0.20746500  1
  Mg  Mg8  1  0.56459400  0.94155000  0.25000000  1
  Mg  Mg9  1  0.43540600  0.34577500  0.20746500  1
  Mg  Mg10  1  0.43540600  0.34577500  0.29253500  1
  Mg  Mg11  1  0.43540600  0.55845000  0.25000000  1
  Mg  Mg12  1  0.25000000  0.01949200  0.21169500  1
  Mg  Mg13  1  0.25000000  0.01949200  0.28830500  1
  Mg  Mg14  1  0.25000000  0.21101600  0.25000000  1
  Mg  Mg15  1  0.75000000  0.48050800  0.28830500  1
  Mg  Mg16  1  0.75000000  0.48050800  0.21169500  1
  Mg  Mg17  1  0.75000000  0.28898400  0.25000000  1
  Mg  Mg18  1  0.00000000  0.75000000  0.25000000  1
  Mg  Mg19  1  0.50000000  0.75000000  0.25000000  1
  Mg  Mg20  1  0.06459400  0.84577500  0.30746500  1
  Mg  Mg21  1  0.06459400  0.84577500  0.39253500  1
  Mg  Mg22  1  0.06459400  0.05845000  0.35000000  1
  Mg  Mg23  1  0.93540600  0.65422500  0.39253500  1
  Mg  Mg24  1  0.93540600  0.65422500  0.30746500  1
  Mg  Mg25  1  0.93540600  0.44155000  0.35000000  1
  Mg  Mg26  1  0.56459400  0.65422500  0.39253500  1
  Mg  Mg27  1  0.56459400  0.65422500  0.30746500  1
  Mg  Mg28  1  0.56459400  0.44155000  0.35000000  1
  Mg  Mg29  1  0.43540600  0.84577500  0.30746500  1
  Mg  Mg30  1  0.43540600  0.84577500  0.39253500  1
  Mg  Mg31  1  0.43540600  0.05845000  0.35000000  1
  Mg  Mg32  1  0.25000000  0.51949200  0.31169500  1
  Mg  Mg33  1  0.25000000  0.51949200  0.38830500  1
  Mg  Mg34  1  0.25000000  0.71101600  0.35000000  1
  Mg  Mg35  1  0.75000000  0.98050800  0.38830500  1
  Mg  Mg36  1  0.75000000  0.98050800  0.31169500  1
  Mg  Mg37  1  0.75000000  0.78898400  0.35000000  1
  Mg  Mg38  1  0.00000000  0.25000000  0.35000000  1
  Mg  Mg39  1  0.50000000  0.25000000  0.35000000  1
  Mg  Mg40  1  0.06459400  0.34577500  0.40746500  1
  Mg  Mg41  1  0.06459400  0.34577500  0.49253500  1
  Mg  Mg42  1  0.06459400  0.55845000  0.45000000  1
  Mg  Mg43  1  0.93540600  0.15422500  0.49253500  1
  Mg  Mg44  1  0.93540600  0.15422500  0.40746500  1
  Mg  Mg45  1  0.93540600  0.94155000  0.45000000  1
  Mg  Mg46  1  0.56459400  0.15422500  0.49253500  1
  Mg  Mg47  1  0.56459400  0.15422500  0.40746500  1
  Mg  Mg48  1  0.56459400  0.94155000  0.45000000  1
  Mg  Mg49  1  0.43540600  0.34577500  0.40746500  1
  Mg  Mg50  1  0.43540600  0.34577500  0.49253500  1
  Mg  Mg51  1  0.43540600  0.55845000  0.45000000  1
  Mg  Mg52  1  0.25000000  0.01949200  0.41169500  1
  Mg  Mg53  1  0.25000000  0.01949200  0.48830500  1
  Mg  Mg54  1  0.25000000  0.21101600  0.45000000  1
  Mg  Mg55  1  0.75000000  0.48050800  0.48830500  1
  Mg  Mg56  1  0.75000000  0.48050800  0.41169500  1
  Mg  Mg57  1  0.75000000  0.28898400  0.45000000  1
  Mg  Mg58  1  0.00000000  0.75000000  0.45000000  1
  Mg  Mg59  1  0.50000000  0.75000000  0.45000000  1
  Mg  Mg60  1  0.06459400  0.84577500  0.50746500  1
  Mg  Mg61  1  0.06459400  0.84577500  0.59253500  1
  Mg  Mg62  1  0.06459400  0.05845000  0.55000000  1
  Mg  Mg63  1  0.93540600  0.65422500  0.59253500  1
  Mg  Mg64  1  0.93540600  0.65422500  0.50746500  1
  Mg  Mg65  1  0.93540600  0.44155000  0.55000000  1
  Mg  Mg66  1  0.56459400  0.65422500  0.59253500  1
  Mg  Mg67  1  0.56459400  0.65422500  0.50746500  1
  Mg  Mg68  1  0.56459400  0.44155000  0.55000000  1
  Mg  Mg69  1  0.43540600  0.84577500  0.50746500  1
  Mg  Mg70  1  0.43540600  0.84577500  0.59253500  1
  Mg  Mg71  1  0.43540600  0.05845000  0.55000000  1
  Mg  Mg72  1  0.25000000  0.51949200  0.51169500  1
  Mg  Mg73  1  0.25000000  0.51949200  0.58830500  1
  Mg  Mg74  1  0.25000000  0.71101600  0.55000000  1
  Mg  Mg75  1  0.75000000  0.98050800  0.58830500  1
  Mg  Mg76  1  0.75000000  0.98050800  0.51169500  1
  Mg  Mg77  1  0.75000000  0.78898400  0.55000000  1
  Mg  Mg78  1  0.00000000  0.25000000  0.55000000  1
  Mg  Mg79  1  0.50000000  0.25000000  0.55000000  1
  Mg  Mg80  1  0.06459400  0.34577500  0.60746500  1
  Mg  Mg81  1  0.06459400  0.34577500  0.69253500  1
  Mg  Mg82  1  0.06459400  0.55845000  0.65000000  1
  Mg  Mg83  1  0.93540600  0.15422500  0.69253500  1
  Mg  Mg84  1  0.93540600  0.15422500  0.60746500  1
  Mg  Mg85  1  0.93540600  0.94155000  0.65000000  1
  Mg  Mg86  1  0.56459400  0.15422500  0.69253500  1
  Mg  Mg87  1  0.56459400  0.15422500  0.60746500  1
  Mg  Mg88  1  0.56459400  0.94155000  0.65000000  1
  Mg  Mg89  1  0.43540600  0.34577500  0.60746500  1
  Mg  Mg90  1  0.43540600  0.34577500  0.69253500  1
  Mg  Mg91  1  0.43540600  0.55845000  0.65000000  1
  Mg  Mg92  1  0.25000000  0.01949200  0.61169500  1
  Mg  Mg93  1  0.25000000  0.01949200  0.68830500  1
  Mg  Mg94  1  0.25000000  0.21101600  0.65000000  1
  Mg  Mg95  1  0.75000000  0.48050800  0.68830500  1
  Mg  Mg96  1  0.75000000  0.48050800  0.61169500  1
  Mg  Mg97  1  0.75000000  0.28898400  0.65000000  1
  Mg  Mg98  1  0.00000000  0.75000000  0.65000000  1
  Mg  Mg99  1  0.50000000  0.75000000  0.65000000  1
  Mg  Mg100  1  0.06459400  0.84577500  0.70746500  1
  Mg  Mg101  1  0.06459400  0.84577500  0.79253500  1
  Mg  Mg102  1  0.06459400  0.05845000  0.75000000  1
  Mg  Mg103  1  0.93540600  0.65422500  0.79253500  1
  Mg  Mg104  1  0.93540600  0.65422500  0.70746500  1
  Mg  Mg105  1  0.93540600  0.44155000  0.75000000  1
  Mg  Mg106  1  0.56459400  0.65422500  0.79253500  1
  Mg  Mg107  1  0.56459400  0.65422500  0.70746500  1
  Mg  Mg108  1  0.56459400  0.44155000  0.75000000  1
  Mg  Mg109  1  0.43540600  0.84577500  0.70746500  1
  Mg  Mg110  1  0.43540600  0.84577500  0.79253500  1
  Mg  Mg111  1  0.43540600  0.05845000  0.75000000  1
  Mg  Mg112  1  0.25000000  0.51949200  0.71169500  1
  Mg  Mg113  1  0.25000000  0.51949200  0.78830500  1
  Mg  Mg114  1  0.25000000  0.71101600  0.75000000  1
  Mg  Mg115  1  0.75000000  0.98050800  0.78830500  1
  Mg  Mg116  1  0.75000000  0.98050800  0.71169500  1
  Mg  Mg117  1  0.75000000  0.78898400  0.75000000  1
  Mg  Mg118  1  0.00000000  0.25000000  0.75000000  1
  Mg  Mg119  1  0.50000000  0.25000000  0.75000000  1
  Pd  Pd120  1  0.25000000  0.68771200  0.21262700  1
  Pd  Pd121  1  0.25000000  0.68771200  0.28737300  1
  Pd  Pd122  1  0.25000000  0.87457700  0.25000000  1
  Pd  Pd123  1  0.75000000  0.81228800  0.28737300  1
  Pd  Pd124  1  0.75000000  0.81228800  0.21262700  1
  Pd  Pd125  1  0.75000000  0.62542300  0.25000000  1
  Pd  Pd126  1  0.25000000  0.41666700  0.25000000  1
  Pd  Pd127  1  0.75000000  0.08333300  0.25000000  1
  Pd  Pd128  1  0.25000000  0.18771200  0.31262700  1
  Pd  Pd129  1  0.25000000  0.18771200  0.38737300  1
  Pd  Pd130  1  0.25000000  0.37457700  0.35000000  1
  Pd  Pd131  1  0.75000000  0.31228800  0.38737300  1
  Pd  Pd132  1  0.75000000  0.31228800  0.31262700  1
  Pd  Pd133  1  0.75000000  0.12542300  0.35000000  1
  Pd  Pd134  1  0.25000000  0.91666700  0.35000000  1
  Pd  Pd135  1  0.75000000  0.58333300  0.35000000  1
  Pd  Pd136  1  0.25000000  0.68771200  0.41262700  1
  Pd  Pd137  1  0.25000000  0.68771200  0.48737300  1
  Pd  Pd138  1  0.25000000  0.87457700  0.45000000  1
  Pd  Pd139  1  0.75000000  0.81228800  0.48737300  1
  Pd  Pd140  1  0.75000000  0.81228800  0.41262700  1
  Pd  Pd141  1  0.75000000  0.62542300  0.45000000  1
  Pd  Pd142  1  0.25000000  0.41666700  0.45000000  1
  Pd  Pd143  1  0.75000000  0.08333300  0.45000000  1
  Pd  Pd144  1  0.25000000  0.18771200  0.51262700  1
  Pd  Pd145  1  0.25000000  0.18771200  0.58737300  1
  Pd  Pd146  1  0.25000000  0.37457700  0.55000000  1
  Pd  Pd147  1  0.75000000  0.31228800  0.58737300  1
  Pd  Pd148  1  0.75000000  0.31228800  0.51262700  1
  Pd  Pd149  1  0.75000000  0.12542300  0.55000000  1
  Pd  Pd150  1  0.25000000  0.91666700  0.55000000  1
  Pd  Pd151  1  0.75000000  0.58333300  0.55000000  1
  Pd  Pd152  1  0.25000000  0.68771200  0.61262700  1
  Pd  Pd153  1  0.25000000  0.68771200  0.68737300  1
  Pd  Pd154  1  0.25000000  0.87457700  0.65000000  1
  Pd  Pd155  1  0.75000000  0.81228800  0.68737300  1
  Pd  Pd156  1  0.75000000  0.81228800  0.61262700  1
  Pd  Pd157  1  0.75000000  0.62542300  0.65000000  1
  Pd  Pd158  1  0.25000000  0.41666700  0.65000000  1
  Pd  Pd159  1  0.75000000  0.08333300  0.65000000  1
  Pd  Pd160  1  0.25000000  0.18771200  0.71262700  1
  Pd  Pd161  1  0.25000000  0.18771200  0.78737300  1
  Pd  Pd162  1  0.25000000  0.37457700  0.75000000  1
  Pd  Pd163  1  0.75000000  0.31228800  0.78737300  1
  Pd  Pd164  1  0.75000000  0.31228800  0.71262700  1
  Pd  Pd165  1  0.75000000  0.12542300  0.75000000  1
  Pd  Pd166  1  0.25000000  0.91666700  0.75000000  1
  Pd  Pd167  1  0.75000000  0.58333300  0.75000000  1
