# generated using pymatgen
data_Nd5Mg56
_symmetry_space_group_name_H-M   'P 1'
_cell_length_a   7.85671621
_cell_length_b   7.85671567
_cell_length_c   41.09948400
_cell_angle_alpha   89.92797840
_cell_angle_beta   89.92797840
_cell_angle_gamma   81.81397999
_symmetry_Int_Tables_number   1
_chemical_formula_structural   Nd5Mg56
_chemical_formula_sum   'Nd5 Mg56'
_cell_volume   2511.13550420
_cell_formula_units_Z   1
loop_
 _symmetry_equiv_pos_site_id
 _symmetry_equiv_pos_as_xyz
  1  'x, y, z'
loop_
 _atom_site_type_symbol
 _atom_site_label
 _atom_site_symmetry_multiplicity
 _atom_site_fract_x
 _atom_site_fract_y
 _atom_site_fract_z
 _atom_site_occupancy
  Nd  Nd0  1  0.14350700  0.14350700  0.73076900  1
  Nd  Nd1  1  0.39350700  0.39350700  0.60576900  1
  Nd  Nd2  1  0.64350700  0.64350700  0.48076900  1
  Nd  Nd3  1  0.89350700  0.89350700  0.35576900  1
  Nd  Nd4  1  0.14350700  0.14350700  0.23076900  1
  Mg  Mg5  1  0.85893600  0.85893600  0.76667400  1
  Mg  Mg6  1  0.49545100  0.79156300  0.73076900  1
  Mg  Mg7  1  0.40746500  0.40746500  0.77476200  1
  Mg  Mg8  1  0.87954900  0.87954900  0.68677600  1
  Mg  Mg9  1  0.14350700  0.64350700  0.73076900  1
  Mg  Mg10  1  0.42807800  0.42807800  0.69486400  1
  Mg  Mg11  1  0.64350700  0.14350700  0.73076900  1
  Mg  Mg12  1  0.79156300  0.49545100  0.73076900  1
  Mg  Mg13  1  0.10893600  0.10893600  0.64167400  1
  Mg  Mg14  1  0.74545100  0.04156300  0.60576900  1
  Mg  Mg15  1  0.65746500  0.65746500  0.64976200  1
  Mg  Mg16  1  0.12954900  0.12954900  0.56177600  1
  Mg  Mg17  1  0.48126900  0.05574500  0.66826900  1
  Mg  Mg18  1  0.39350700  0.89350700  0.60576900  1
  Mg  Mg19  1  0.67807800  0.67807800  0.56986400  1
  Mg  Mg20  1  0.89350700  0.39350700  0.60576900  1
  Mg  Mg21  1  0.04156300  0.74545100  0.60576900  1
  Mg  Mg22  1  0.05574500  0.48126900  0.66826900  1
  Mg  Mg23  1  0.76850700  0.26850700  0.66826900  1
  Mg  Mg24  1  0.26850700  0.76850700  0.66826900  1
  Mg  Mg25  1  0.35893600  0.35893600  0.51667400  1
  Mg  Mg26  1  0.99545100  0.29156300  0.48076900  1
  Mg  Mg27  1  0.90746500  0.90746500  0.52476200  1
  Mg  Mg28  1  0.37954900  0.37954900  0.43677600  1
  Mg  Mg29  1  0.73126900  0.30574500  0.54326900  1
  Mg  Mg30  1  0.64350700  0.14350700  0.48076900  1
  Mg  Mg31  1  0.92807800  0.92807800  0.44486400  1
  Mg  Mg32  1  0.14350700  0.64350700  0.48076900  1
  Mg  Mg33  1  0.29156300  0.99545100  0.48076900  1
  Mg  Mg34  1  0.30574500  0.73126900  0.54326900  1
  Mg  Mg35  1  0.01850700  0.51850700  0.54326900  1
  Mg  Mg36  1  0.51850700  0.01850700  0.54326900  1
  Mg  Mg37  1  0.60893600  0.60893600  0.39167400  1
  Mg  Mg38  1  0.24545100  0.54156300  0.35576900  1
  Mg  Mg39  1  0.15746500  0.15746500  0.39976200  1
  Mg  Mg40  1  0.62954900  0.62954900  0.31177600  1
  Mg  Mg41  1  0.98126900  0.55574500  0.41826900  1
  Mg  Mg42  1  0.89350700  0.39350700  0.35576900  1
  Mg  Mg43  1  0.17807800  0.17807800  0.31986400  1
  Mg  Mg44  1  0.39350700  0.89350700  0.35576900  1
  Mg  Mg45  1  0.54156300  0.24545100  0.35576900  1
  Mg  Mg46  1  0.55574500  0.98126900  0.41826900  1
  Mg  Mg47  1  0.26850700  0.76850700  0.41826900  1
  Mg  Mg48  1  0.76850700  0.26850700  0.41826900  1
  Mg  Mg49  1  0.85893600  0.85893600  0.26667400  1
  Mg  Mg50  1  0.49545100  0.79156300  0.23076900  1
  Mg  Mg51  1  0.40746500  0.40746500  0.27476200  1
  Mg  Mg52  1  0.87954900  0.87954900  0.18677600  1
  Mg  Mg53  1  0.23126900  0.80574500  0.29326900  1
  Mg  Mg54  1  0.14350700  0.64350700  0.23076900  1
  Mg  Mg55  1  0.42807800  0.42807800  0.19486400  1
  Mg  Mg56  1  0.64350700  0.14350700  0.23076900  1
  Mg  Mg57  1  0.79156300  0.49545100  0.23076900  1
  Mg  Mg58  1  0.80574500  0.23126900  0.29326900  1
  Mg  Mg59  1  0.51850700  0.01850700  0.29326900  1
  Mg  Mg60  1  0.01850700  0.51850700  0.29326900  1
