# generated using pymatgen
data_MgCd2
_symmetry_space_group_name_H-M   'P 1'
_cell_length_a   3.10433600
_cell_length_b   17.22734645
_cell_length_c   49.77638600
_cell_angle_alpha   91.61502969
_cell_angle_beta   90.00000000
_cell_angle_gamma   90.00000000
_symmetry_Int_Tables_number   1
_chemical_formula_structural   MgCd2
_chemical_formula_sum   'Mg24 Cd48'
_cell_volume   2660.95736199
_cell_formula_units_Z   24
loop_
 _symmetry_equiv_pos_site_id
 _symmetry_equiv_pos_as_xyz
  1  'x, y, z'
loop_
 _atom_site_type_symbol
 _atom_site_label
 _atom_site_symmetry_multiplicity
 _atom_site_fract_x
 _atom_site_fract_y
 _atom_site_fract_z
 _atom_site_occupancy
  Mg  Mg0  1  0.00000000  0.97638600  0.28595700  1
  Mg  Mg1  1  0.50000000  0.67361400  0.26404300  1
  Mg  Mg2  1  0.50000000  0.42638600  0.23595700  1
  Mg  Mg3  1  0.00000000  0.12361400  0.21404300  1
  Mg  Mg4  1  0.00000000  0.07638600  0.38595700  1
  Mg  Mg5  1  0.50000000  0.77361400  0.36404300  1
  Mg  Mg6  1  0.50000000  0.52638600  0.33595700  1
  Mg  Mg7  1  1.00000000  0.22361400  0.31404300  1
  Mg  Mg8  1  0.00000000  0.17638600  0.48595700  1
  Mg  Mg9  1  0.50000000  0.87361400  0.46404300  1
  Mg  Mg10  1  0.50000000  0.62638600  0.43595700  1
  Mg  Mg11  1  1.00000000  0.32361400  0.41404300  1
  Mg  Mg12  1  0.00000000  0.27638600  0.58595700  1
  Mg  Mg13  1  0.50000000  0.97361400  0.56404300  1
  Mg  Mg14  1  0.50000000  0.72638600  0.53595700  1
  Mg  Mg15  1  1.00000000  0.42361400  0.51404300  1
  Mg  Mg16  1  0.00000000  0.37638600  0.68595700  1
  Mg  Mg17  1  0.50000000  0.07361400  0.66404300  1
  Mg  Mg18  1  0.50000000  0.82638600  0.63595700  1
  Mg  Mg19  1  1.00000000  0.52361400  0.61404300  1
  Mg  Mg20  1  0.00000000  0.47638600  0.78595700  1
  Mg  Mg21  1  0.50000000  0.17361400  0.76404300  1
  Mg  Mg22  1  0.50000000  0.92638600  0.73595700  1
  Mg  Mg23  1  0.00000000  0.62361400  0.71404300  1
  Cd  Cd24  1  1.00000000  0.57587400  0.21934700  1
  Cd  Cd25  1  0.50000000  0.72633800  0.20262900  1
  Cd  Cd26  1  0.00000000  0.82366200  0.24737100  1
  Cd  Cd27  1  0.50000000  0.97412600  0.23065300  1
  Cd  Cd28  1  0.50000000  0.12587400  0.26934700  1
  Cd  Cd29  1  0.00000000  0.27633800  0.25262900  1
  Cd  Cd30  1  0.50000000  0.37366200  0.29737100  1
  Cd  Cd31  1  0.00000000  0.52412600  0.28065300  1
  Cd  Cd32  1  0.00000000  0.67587400  0.31934700  1
  Cd  Cd33  1  0.50000000  0.82633800  0.30262900  1
  Cd  Cd34  1  0.00000000  0.92366200  0.34737100  1
  Cd  Cd35  1  0.50000000  0.07412600  0.33065300  1
  Cd  Cd36  1  0.50000000  0.22587400  0.36934700  1
  Cd  Cd37  1  1.00000000  0.37633800  0.35262900  1
  Cd  Cd38  1  0.50000000  0.47366200  0.39737100  1
  Cd  Cd39  1  0.00000000  0.62412600  0.38065300  1
  Cd  Cd40  1  1.00000000  0.77587400  0.41934700  1
  Cd  Cd41  1  0.50000000  0.92633800  0.40262900  1
  Cd  Cd42  1  0.00000000  0.02366200  0.44737100  1
  Cd  Cd43  1  0.50000000  0.17412600  0.43065300  1
  Cd  Cd44  1  0.50000000  0.32587400  0.46934700  1
  Cd  Cd45  1  1.00000000  0.47633800  0.45262900  1
  Cd  Cd46  1  0.50000000  0.57366200  0.49737100  1
  Cd  Cd47  1  0.00000000  0.72412600  0.48065300  1
  Cd  Cd48  1  0.00000000  0.87587400  0.51934700  1
  Cd  Cd49  1  0.50000000  0.02633800  0.50262900  1
  Cd  Cd50  1  0.00000000  0.12366200  0.54737100  1
  Cd  Cd51  1  0.50000000  0.27412600  0.53065300  1
  Cd  Cd52  1  0.50000000  0.42587400  0.56934700  1
  Cd  Cd53  1  1.00000000  0.57633800  0.55262900  1
  Cd  Cd54  1  0.50000000  0.67366200  0.59737100  1
  Cd  Cd55  1  0.00000000  0.82412600  0.58065300  1
  Cd  Cd56  1  0.00000000  0.97587400  0.61934700  1
  Cd  Cd57  1  0.50000000  0.12633800  0.60262900  1
  Cd  Cd58  1  0.00000000  0.22366200  0.64737100  1
  Cd  Cd59  1  0.50000000  0.37412600  0.63065300  1
  Cd  Cd60  1  0.50000000  0.52587400  0.66934700  1
  Cd  Cd61  1  0.00000000  0.67633800  0.65262900  1
  Cd  Cd62  1  0.50000000  0.77366200  0.69737100  1
  Cd  Cd63  1  0.00000000  0.92412600  0.68065300  1
  Cd  Cd64  1  0.00000000  0.07587400  0.71934700  1
  Cd  Cd65  1  0.50000000  0.22633800  0.70262900  1
  Cd  Cd66  1  1.00000000  0.32366200  0.74737100  1
  Cd  Cd67  1  0.50000000  0.47412600  0.73065300  1
  Cd  Cd68  1  0.50000000  0.62587400  0.76934700  1
  Cd  Cd69  1  1.00000000  0.77633800  0.75262900  1
  Cd  Cd70  1  0.50000000  0.87366200  0.79737100  1
  Cd  Cd71  1  0.00000000  0.02412600  0.78065300  1
