# generated using pymatgen
data_Mg20Si11
_symmetry_space_group_name_H-M   'P 1'
_cell_length_a   7.16868100
_cell_length_b   12.34156200
_cell_length_c   49.66607700
_cell_angle_alpha   90.00000000
_cell_angle_beta   90.00000000
_cell_angle_gamma   90.00000000
_symmetry_Int_Tables_number   1
_chemical_formula_structural   Mg20Si11
_chemical_formula_sum   'Mg80 Si44'
_cell_volume   4394.09297457
_cell_formula_units_Z   4
loop_
 _symmetry_equiv_pos_site_id
 _symmetry_equiv_pos_as_xyz
  1  'x, y, z'
loop_
 _atom_site_type_symbol
 _atom_site_label
 _atom_site_symmetry_multiplicity
 _atom_site_fract_x
 _atom_site_fract_y
 _atom_site_fract_z
 _atom_site_occupancy
  Mg  Mg0  1  0.01491600  0.58295800  0.29626400  1
  Mg  Mg1  1  0.28864800  0.08295800  0.27516400  1
  Mg  Mg2  1  0.28864800  0.41704200  0.27516400  1
  Mg  Mg3  1  0.01491600  0.91704200  0.29626400  1
  Mg  Mg4  1  0.86089200  0.75000000  0.25149000  1
  Mg  Mg5  1  0.96168300  0.25000000  0.29474100  1
  Mg  Mg6  1  0.34188100  0.75000000  0.27668800  1
  Mg  Mg7  1  0.44267200  0.25000000  0.31993900  1
  Mg  Mg8  1  0.39664900  0.08295800  0.37059800  1
  Mg  Mg9  1  0.03351500  0.58295800  0.36004800  1
  Mg  Mg10  1  0.51491600  0.58295800  0.42126400  1
  Mg  Mg11  1  0.78864800  0.08295800  0.40016400  1
  Mg  Mg12  1  0.77004900  0.08295800  0.33638100  1
  Mg  Mg13  1  0.40691500  0.58295800  0.32583100  1
  Mg  Mg14  1  0.40691500  0.91704200  0.32583100  1
  Mg  Mg15  1  0.77004900  0.41704200  0.33638100  1
  Mg  Mg16  1  0.78864800  0.41704200  0.40016400  1
  Mg  Mg17  1  0.51491600  0.91704200  0.42126400  1
  Mg  Mg18  1  0.03351500  0.91704200  0.36004800  1
  Mg  Mg19  1  0.39664900  0.41704200  0.37059800  1
  Mg  Mg20  1  0.36089200  0.75000000  0.37649000  1
  Mg  Mg21  1  0.05099100  0.25000000  0.36746300  1
  Mg  Mg22  1  0.46168300  0.25000000  0.41974100  1
  Mg  Mg23  1  0.84188100  0.75000000  0.40168800  1
  Mg  Mg24  1  0.75257300  0.75000000  0.32896500  1
  Mg  Mg25  1  0.94267200  0.25000000  0.44493900  1
  Mg  Mg26  1  0.89664900  0.08295800  0.49559800  1
  Mg  Mg27  1  0.53351500  0.58295800  0.48504800  1
  Mg  Mg28  1  0.01491600  0.58295800  0.54626400  1
  Mg  Mg29  1  0.28864800  0.08295800  0.52516400  1
  Mg  Mg30  1  0.27004900  0.08295800  0.46138100  1
  Mg  Mg31  1  0.90691500  0.58295800  0.45083100  1
  Mg  Mg32  1  0.90691500  0.91704200  0.45083100  1
  Mg  Mg33  1  0.27004900  0.41704200  0.46138100  1
  Mg  Mg34  1  0.28864800  0.41704200  0.52516400  1
  Mg  Mg35  1  0.01491600  0.91704200  0.54626400  1
  Mg  Mg36  1  0.53351500  0.91704200  0.48504800  1
  Mg  Mg37  1  0.89664900  0.41704200  0.49559800  1
  Mg  Mg38  1  0.86089200  0.75000000  0.50149000  1
  Mg  Mg39  1  0.55099100  0.25000000  0.49246300  1
  Mg  Mg40  1  0.96168300  0.25000000  0.54474100  1
  Mg  Mg41  1  0.34188100  0.75000000  0.52668800  1
  Mg  Mg42  1  0.25257300  0.75000000  0.45396500  1
  Mg  Mg43  1  0.44267200  0.25000000  0.56993900  1
  Mg  Mg44  1  0.39664900  0.08295800  0.62059800  1
  Mg  Mg45  1  0.03351500  0.58295800  0.61004800  1
  Mg  Mg46  1  0.51491600  0.58295800  0.67126400  1
  Mg  Mg47  1  0.78864800  0.08295800  0.65016400  1
  Mg  Mg48  1  0.77004900  0.08295800  0.58638100  1
  Mg  Mg49  1  0.40691500  0.58295800  0.57583100  1
  Mg  Mg50  1  0.40691500  0.91704200  0.57583100  1
  Mg  Mg51  1  0.77004900  0.41704200  0.58638100  1
  Mg  Mg52  1  0.78864800  0.41704200  0.65016400  1
  Mg  Mg53  1  0.51491600  0.91704200  0.67126400  1
  Mg  Mg54  1  0.03351500  0.91704200  0.61004800  1
  Mg  Mg55  1  0.39664900  0.41704200  0.62059800  1
  Mg  Mg56  1  0.36089200  0.75000000  0.62649000  1
  Mg  Mg57  1  0.05099100  0.25000000  0.61746300  1
  Mg  Mg58  1  0.46168300  0.25000000  0.66974100  1
  Mg  Mg59  1  0.84188100  0.75000000  0.65168800  1
  Mg  Mg60  1  0.75257300  0.75000000  0.57896500  1
  Mg  Mg61  1  0.94267200  0.25000000  0.69493900  1
  Mg  Mg62  1  0.89664900  0.08295800  0.74559800  1
  Mg  Mg63  1  0.53351500  0.58295800  0.73504800  1
  Mg  Mg64  1  0.01491600  0.58295800  0.79626400  1
  Mg  Mg65  1  0.28864800  0.08295800  0.77516400  1
  Mg  Mg66  1  0.27004900  0.08295800  0.71138100  1
  Mg  Mg67  1  0.90691500  0.58295800  0.70083100  1
  Mg  Mg68  1  0.90691500  0.91704200  0.70083100  1
  Mg  Mg69  1  0.27004900  0.41704200  0.71138100  1
  Mg  Mg70  1  0.28864800  0.41704200  0.77516400  1
  Mg  Mg71  1  0.01491600  0.91704200  0.79626400  1
  Mg  Mg72  1  0.53351500  0.91704200  0.73504800  1
  Mg  Mg73  1  0.89664900  0.41704200  0.74559800  1
  Mg  Mg74  1  0.86089200  0.75000000  0.75149000  1
  Mg  Mg75  1  0.55099100  0.25000000  0.74246300  1
  Mg  Mg76  1  0.96168300  0.25000000  0.79474100  1
  Mg  Mg77  1  0.34188100  0.75000000  0.77668800  1
  Mg  Mg78  1  0.25257300  0.75000000  0.70396500  1
  Mg  Mg79  1  0.44267200  0.25000000  0.81993900  1
  Si  Si80  1  0.65178200  0.89974100  0.28571400  1
  Si  Si81  1  0.65178200  0.39974100  0.28571400  1
  Si  Si82  1  0.65178200  0.10025900  0.28571400  1
  Si  Si83  1  0.65178200  0.60025900  0.28571400  1
  Si  Si84  1  0.15178200  0.89974100  0.41071400  1
  Si  Si85  1  0.15178200  0.39974100  0.41071400  1
  Si  Si86  1  0.15178200  0.10025900  0.41071400  1
  Si  Si87  1  0.15178200  0.60025900  0.41071400  1
  Si  Si88  1  0.15178200  0.75000000  0.32738100  1
  Si  Si89  1  0.65178200  0.25000000  0.36904800  1
  Si  Si90  1  0.65178200  0.58746500  0.36904800  1
  Si  Si91  1  0.15178200  0.08746500  0.32738100  1
  Si  Si92  1  0.15178200  0.41253500  0.32738100  1
  Si  Si93  1  0.65178200  0.91253500  0.36904800  1
  Si  Si94  1  0.65178200  0.89974100  0.53571400  1
  Si  Si95  1  0.65178200  0.39974100  0.53571400  1
  Si  Si96  1  0.65178200  0.10025900  0.53571400  1
  Si  Si97  1  0.65178200  0.60025900  0.53571400  1
  Si  Si98  1  0.65178200  0.75000000  0.45238100  1
  Si  Si99  1  0.15178200  0.25000000  0.49404800  1
  Si  Si100  1  0.15178200  0.58746500  0.49404800  1
  Si  Si101  1  0.65178200  0.08746500  0.45238100  1
  Si  Si102  1  0.65178200  0.41253500  0.45238100  1
  Si  Si103  1  0.15178200  0.91253500  0.49404800  1
  Si  Si104  1  0.15178200  0.89974100  0.66071400  1
  Si  Si105  1  0.15178200  0.39974100  0.66071400  1
  Si  Si106  1  0.15178200  0.10025900  0.66071400  1
  Si  Si107  1  0.15178200  0.60025900  0.66071400  1
  Si  Si108  1  0.15178200  0.75000000  0.57738100  1
  Si  Si109  1  0.65178200  0.25000000  0.61904800  1
  Si  Si110  1  0.65178200  0.58746500  0.61904800  1
  Si  Si111  1  0.15178200  0.08746500  0.57738100  1
  Si  Si112  1  0.15178200  0.41253500  0.57738100  1
  Si  Si113  1  0.65178200  0.91253500  0.61904800  1
  Si  Si114  1  0.65178200  0.89974100  0.78571400  1
  Si  Si115  1  0.65178200  0.39974100  0.78571400  1
  Si  Si116  1  0.65178200  0.10025900  0.78571400  1
  Si  Si117  1  0.65178200  0.60025900  0.78571400  1
  Si  Si118  1  0.65178200  0.75000000  0.70238100  1
  Si  Si119  1  0.15178200  0.25000000  0.74404800  1
  Si  Si120  1  0.15178200  0.58746500  0.74404800  1
  Si  Si121  1  0.65178200  0.08746500  0.70238100  1
  Si  Si122  1  0.65178200  0.41253500  0.70238100  1
  Si  Si123  1  0.15178200  0.91253500  0.74404800  1
