# generated using pymatgen
data_Li59Mg15
_symmetry_space_group_name_H-M   'P 1'
_cell_length_a   3.06669500
_cell_length_b   38.27865085
_cell_length_c   42.49336600
_cell_angle_alpha   86.02152941
_cell_angle_beta   90.00000000
_cell_angle_gamma   92.29573984
_symmetry_Int_Tables_number   1
_chemical_formula_structural   Li59Mg15
_chemical_formula_sum   'Li118 Mg30'
_cell_volume   4972.21739699
_cell_formula_units_Z   2
loop_
 _symmetry_equiv_pos_site_id
 _symmetry_equiv_pos_as_xyz
  1  'x, y, z'
loop_
 _atom_site_type_symbol
 _atom_site_label
 _atom_site_symmetry_multiplicity
 _atom_site_fract_x
 _atom_site_fract_y
 _atom_site_fract_z
 _atom_site_occupancy
  Li  Li0  1  0.01643900  0.93201300  0.22716600  1
  Li  Li1  1  0.48356100  0.86625700  0.21044200  1
  Li  Li2  1  0.91776000  0.73465400  0.23950100  1
  Li  Li3  1  0.18310600  0.26534600  0.24799900  1
  Li  Li4  1  0.65022800  0.19959000  0.23127600  1
  Li  Li5  1  0.11730400  0.13374300  0.21455800  1
  Li  Li6  1  0.58442600  0.06798700  0.19783400  1
  Li  Li7  1  0.84977200  0.59868000  0.20633300  1
  Li  Li8  1  0.28397100  0.46707700  0.23539100  1
  Li  Li9  1  0.75109300  0.40132000  0.21866700  1
  Li  Li10  1  0.51643900  0.93201300  0.28966600  1
  Li  Li11  1  0.98356100  0.86625700  0.27294200  1
  Li  Li12  1  0.45063800  0.80041000  0.25622400  1
  Li  Li13  1  0.41776000  0.73465400  0.30200100  1
  Li  Li14  1  0.68310600  0.26534600  0.31049900  1
  Li  Li15  1  0.15022800  0.19959000  0.29377600  1
  Li  Li16  1  0.61730400  0.13374300  0.27705800  1
  Li  Li17  1  0.08442600  0.06798700  0.26033400  1
  Li  Li18  1  0.34977200  0.59868000  0.26883300  1
  Li  Li19  1  0.81689400  0.53292300  0.25210900  1
  Li  Li20  1  0.78397100  0.46707700  0.29789100  1
  Li  Li21  1  0.25109300  0.40132000  0.28116700  1
  Li  Li22  1  0.01643900  0.93201300  0.35216600  1
  Li  Li23  1  0.48356100  0.86625700  0.33544200  1
  Li  Li24  1  0.95063800  0.80041000  0.31872400  1
  Li  Li25  1  0.91776000  0.73465400  0.36450100  1
  Li  Li26  1  0.18310600  0.26534600  0.37299900  1
  Li  Li27  1  0.65022800  0.19959000  0.35627600  1
  Li  Li28  1  0.11730400  0.13374300  0.33955800  1
  Li  Li29  1  0.58442600  0.06798700  0.32283400  1
  Li  Li30  1  0.84977200  0.59868000  0.33133300  1
  Li  Li31  1  0.31689400  0.53292300  0.31460900  1
  Li  Li32  1  0.28397100  0.46707700  0.36039100  1
  Li  Li33  1  0.75109300  0.40132000  0.34366700  1
  Li  Li34  1  0.51643900  0.93201300  0.41466600  1
  Li  Li35  1  0.98356100  0.86625700  0.39794200  1
  Li  Li36  1  0.45063800  0.80041000  0.38122400  1
  Li  Li37  1  0.41776000  0.73465400  0.42700100  1
  Li  Li38  1  0.68310600  0.26534600  0.43549900  1
  Li  Li39  1  0.15022800  0.19959000  0.41877600  1
  Li  Li40  1  0.61730400  0.13374300  0.40205800  1
  Li  Li41  1  0.08442600  0.06798700  0.38533400  1
  Li  Li42  1  0.34977200  0.59868000  0.39383300  1
  Li  Li43  1  0.81689400  0.53292300  0.37710900  1
  Li  Li44  1  0.78397100  0.46707700  0.42289100  1
  Li  Li45  1  0.25109300  0.40132000  0.40616700  1
  Li  Li46  1  0.01643900  0.93201300  0.47716600  1
  Li  Li47  1  0.48356100  0.86625700  0.46044200  1
  Li  Li48  1  0.95063800  0.80041000  0.44372400  1
  Li  Li49  1  0.91776000  0.73465400  0.48950100  1
  Li  Li50  1  0.18310600  0.26534600  0.49799900  1
  Li  Li51  1  0.65022800  0.19959000  0.48127600  1
  Li  Li52  1  0.11730400  0.13374300  0.46455800  1
  Li  Li53  1  0.58442600  0.06798700  0.44783400  1
  Li  Li54  1  0.84977200  0.59868000  0.45633300  1
  Li  Li55  1  0.31689400  0.53292300  0.43960900  1
  Li  Li56  1  0.28397100  0.46707700  0.48539100  1
  Li  Li57  1  0.75109300  0.40132000  0.46866700  1
  Li  Li58  1  0.51643900  0.93201300  0.53966600  1
  Li  Li59  1  0.98356100  0.86625700  0.52294200  1
  Li  Li60  1  0.45063800  0.80041000  0.50622400  1
  Li  Li61  1  0.41776000  0.73465400  0.55200100  1
  Li  Li62  1  0.68310600  0.26534600  0.56049900  1
  Li  Li63  1  0.15022800  0.19959000  0.54377600  1
  Li  Li64  1  0.61730400  0.13374300  0.52705800  1
  Li  Li65  1  0.08442600  0.06798700  0.51033400  1
  Li  Li66  1  0.34977200  0.59868000  0.51883300  1
  Li  Li67  1  0.81689400  0.53292300  0.50210900  1
  Li  Li68  1  0.78397100  0.46707700  0.54789100  1
  Li  Li69  1  0.25109300  0.40132000  0.53116700  1
  Li  Li70  1  0.01643900  0.93201300  0.60216600  1
  Li  Li71  1  0.48356100  0.86625700  0.58544200  1
  Li  Li72  1  0.95063800  0.80041000  0.56872400  1
  Li  Li73  1  0.91776000  0.73465400  0.61450100  1
  Li  Li74  1  0.18310600  0.26534600  0.62299900  1
  Li  Li75  1  0.65022800  0.19959000  0.60627600  1
  Li  Li76  1  0.11730400  0.13374300  0.58955800  1
  Li  Li77  1  0.58442600  0.06798700  0.57283400  1
  Li  Li78  1  0.84977200  0.59868000  0.58133300  1
  Li  Li79  1  0.31689400  0.53292300  0.56460900  1
  Li  Li80  1  0.28397100  0.46707700  0.61039100  1
  Li  Li81  1  0.75109300  0.40132000  0.59366700  1
  Li  Li82  1  0.51643900  0.93201300  0.66466600  1
  Li  Li83  1  0.98356100  0.86625700  0.64794200  1
  Li  Li84  1  0.45063800  0.80041000  0.63122400  1
  Li  Li85  1  0.41776000  0.73465400  0.67700100  1
  Li  Li86  1  0.68310600  0.26534600  0.68549900  1
  Li  Li87  1  0.15022800  0.19959000  0.66877600  1
  Li  Li88  1  0.61730400  0.13374300  0.65205800  1
  Li  Li89  1  0.08442600  0.06798700  0.63533400  1
  Li  Li90  1  0.34977200  0.59868000  0.64383300  1
  Li  Li91  1  0.81689400  0.53292300  0.62710900  1
  Li  Li92  1  0.78397100  0.46707700  0.67289100  1
  Li  Li93  1  0.25109300  0.40132000  0.65616700  1
  Li  Li94  1  0.01643900  0.93201300  0.72716600  1
  Li  Li95  1  0.48356100  0.86625700  0.71044200  1
  Li  Li96  1  0.95063800  0.80041000  0.69372400  1
  Li  Li97  1  0.91776000  0.73465400  0.73950100  1
  Li  Li98  1  0.18310600  0.26534600  0.74799900  1
  Li  Li99  1  0.65022800  0.19959000  0.73127600  1
  Li  Li100  1  0.11730400  0.13374300  0.71455800  1
  Li  Li101  1  0.58442600  0.06798700  0.69783400  1
  Li  Li102  1  0.84977200  0.59868000  0.70633300  1
  Li  Li103  1  0.31689400  0.53292300  0.68960900  1
  Li  Li104  1  0.28397100  0.46707700  0.73539100  1
  Li  Li105  1  0.75109300  0.40132000  0.71866700  1
  Li  Li106  1  0.51643900  0.93201300  0.78966600  1
  Li  Li107  1  0.98356100  0.86625700  0.77294200  1
  Li  Li108  1  0.45063800  0.80041000  0.75622400  1
  Li  Li109  1  0.41776000  0.73465400  0.80200100  1
  Li  Li110  1  0.68310600  0.26534600  0.81049900  1
  Li  Li111  1  0.15022800  0.19959000  0.79377600  1
  Li  Li112  1  0.61730400  0.13374300  0.77705800  1
  Li  Li113  1  0.08442600  0.06798700  0.76033400  1
  Li  Li114  1  0.34977200  0.59868000  0.76883300  1
  Li  Li115  1  0.81689400  0.53292300  0.75210900  1
  Li  Li116  1  0.78397100  0.46707700  0.79789100  1
  Li  Li117  1  0.25109300  0.40132000  0.78116700  1
  Mg  Mg118  1  0.55043300  0.00000000  0.24375000  1
  Mg  Mg119  1  0.21709900  0.33333300  0.20208300  1
  Mg  Mg120  1  0.38376600  0.66666700  0.22291700  1
  Mg  Mg121  1  0.05043300  0.00000000  0.30625000  1
  Mg  Mg122  1  0.71709900  0.33333300  0.26458300  1
  Mg  Mg123  1  0.88376600  0.66666700  0.28541700  1
  Mg  Mg124  1  0.55043300  0.00000000  0.36875000  1
  Mg  Mg125  1  0.21709900  0.33333300  0.32708300  1
  Mg  Mg126  1  0.38376600  0.66666700  0.34791700  1
  Mg  Mg127  1  0.05043300  0.00000000  0.43125000  1
  Mg  Mg128  1  0.71709900  0.33333300  0.38958300  1
  Mg  Mg129  1  0.88376600  0.66666700  0.41041700  1
  Mg  Mg130  1  0.55043300  0.00000000  0.49375000  1
  Mg  Mg131  1  0.21709900  0.33333300  0.45208300  1
  Mg  Mg132  1  0.38376600  0.66666700  0.47291700  1
  Mg  Mg133  1  0.05043300  0.00000000  0.55625000  1
  Mg  Mg134  1  0.71709900  0.33333300  0.51458300  1
  Mg  Mg135  1  0.88376600  0.66666700  0.53541700  1
  Mg  Mg136  1  0.55043300  0.00000000  0.61875000  1
  Mg  Mg137  1  0.21709900  0.33333300  0.57708300  1
  Mg  Mg138  1  0.38376600  0.66666700  0.59791700  1
  Mg  Mg139  1  0.05043300  0.00000000  0.68125000  1
  Mg  Mg140  1  0.71709900  0.33333300  0.63958300  1
  Mg  Mg141  1  0.88376600  0.66666700  0.66041700  1
  Mg  Mg142  1  0.55043300  0.00000000  0.74375000  1
  Mg  Mg143  1  0.21709900  0.33333300  0.70208300  1
  Mg  Mg144  1  0.38376600  0.66666700  0.72291700  1
  Mg  Mg145  1  0.05043300  0.00000000  0.80625000  1
  Mg  Mg146  1  0.71709900  0.33333300  0.76458300  1
  Mg  Mg147  1  0.88376600  0.66666700  0.78541700  1
