# generated using pymatgen
data_Lu3Mg
_symmetry_space_group_name_H-M   'P 1'
_cell_length_a   6.87894400
_cell_length_b   6.87894378
_cell_length_c   43.79626800
_cell_angle_alpha   90.00000000
_cell_angle_beta   90.00000000
_cell_angle_gamma   120.00000106
_symmetry_Int_Tables_number   1
_chemical_formula_structural   Lu3Mg
_chemical_formula_sum   'Lu30 Mg10'
_cell_volume   1794.78018317
_cell_formula_units_Z   10
loop_
 _symmetry_equiv_pos_site_id
 _symmetry_equiv_pos_as_xyz
  1  'x, y, z'
loop_
 _atom_site_type_symbol
 _atom_site_label
 _atom_site_symmetry_multiplicity
 _atom_site_fract_x
 _atom_site_fract_y
 _atom_site_fract_z
 _atom_site_occupancy
  Lu  Lu0  1  0.33536000  0.16768000  0.28125000  1
  Lu  Lu1  1  0.83232000  0.66464000  0.28125000  1
  Lu  Lu2  1  0.83232000  0.16768000  0.28125000  1
  Lu  Lu3  1  0.16768000  0.83232000  0.21875000  1
  Lu  Lu4  1  0.16768000  0.33536000  0.21875000  1
  Lu  Lu5  1  0.66464000  0.83232000  0.21875000  1
  Lu  Lu6  1  0.33536000  0.16768000  0.40625000  1
  Lu  Lu7  1  0.83232000  0.66464000  0.40625000  1
  Lu  Lu8  1  0.83232000  0.16768000  0.40625000  1
  Lu  Lu9  1  0.16768000  0.83232000  0.34375000  1
  Lu  Lu10  1  0.16768000  0.33536000  0.34375000  1
  Lu  Lu11  1  0.66464000  0.83232000  0.34375000  1
  Lu  Lu12  1  0.33536000  0.16768000  0.53125000  1
  Lu  Lu13  1  0.83232000  0.66464000  0.53125000  1
  Lu  Lu14  1  0.83232000  0.16768000  0.53125000  1
  Lu  Lu15  1  0.16768000  0.83232000  0.46875000  1
  Lu  Lu16  1  0.16768000  0.33536000  0.46875000  1
  Lu  Lu17  1  0.66464000  0.83232000  0.46875000  1
  Lu  Lu18  1  0.33536000  0.16768000  0.65625000  1
  Lu  Lu19  1  0.83232000  0.66464000  0.65625000  1
  Lu  Lu20  1  0.83232000  0.16768000  0.65625000  1
  Lu  Lu21  1  0.16768000  0.83232000  0.59375000  1
  Lu  Lu22  1  0.16768000  0.33536000  0.59375000  1
  Lu  Lu23  1  0.66464000  0.83232000  0.59375000  1
  Lu  Lu24  1  0.33536000  0.16768000  0.78125000  1
  Lu  Lu25  1  0.83232000  0.66464000  0.78125000  1
  Lu  Lu26  1  0.83232000  0.16768000  0.78125000  1
  Lu  Lu27  1  0.16768000  0.83232000  0.71875000  1
  Lu  Lu28  1  0.16768000  0.33536000  0.71875000  1
  Lu  Lu29  1  0.66464000  0.83232000  0.71875000  1
  Mg  Mg30  1  0.33333300  0.66666700  0.28125000  1
  Mg  Mg31  1  0.66666700  0.33333300  0.21875000  1
  Mg  Mg32  1  0.33333300  0.66666700  0.40625000  1
  Mg  Mg33  1  0.66666700  0.33333300  0.34375000  1
  Mg  Mg34  1  0.33333300  0.66666700  0.53125000  1
  Mg  Mg35  1  0.66666700  0.33333300  0.46875000  1
  Mg  Mg36  1  0.33333300  0.66666700  0.65625000  1
  Mg  Mg37  1  0.66666700  0.33333300  0.59375000  1
  Mg  Mg38  1  0.33333300  0.66666700  0.78125000  1
  Mg  Mg39  1  0.66666700  0.33333300  0.71875000  1
