# generated using pymatgen
data_Mg7Zn12
_symmetry_space_group_name_H-M   'P 1'
_cell_length_a   5.07402237
_cell_length_b   17.20699092
_cell_length_c   54.58155700
_cell_angle_alpha   87.89733091
_cell_angle_beta   92.22235669
_cell_angle_gamma   98.42726965
_symmetry_Int_Tables_number   1
_chemical_formula_structural   Mg7Zn12
_chemical_formula_sum   'Mg56 Zn96'
_cell_volume   4708.12472958
_cell_formula_units_Z   8
loop_
 _symmetry_equiv_pos_site_id
 _symmetry_equiv_pos_as_xyz
  1  'x, y, z'
loop_
 _atom_site_type_symbol
 _atom_site_label
 _atom_site_symmetry_multiplicity
 _atom_site_fract_x
 _atom_site_fract_y
 _atom_site_fract_z
 _atom_site_occupancy
  Mg  Mg0  1  0.47054600  0.40748600  0.35379900  1
  Mg  Mg1  1  0.40896900  0.39123100  0.25247500  1
  Mg  Mg2  1  0.12765300  0.79167800  0.27214400  1
  Mg  Mg3  1  0.92215700  0.31958000  0.33814500  1
  Mg  Mg4  1  0.96602600  0.49796000  0.25020400  1
  Mg  Mg5  1  0.04400600  0.61363900  0.29523800  1
  Mg  Mg6  1  0.83086300  0.17438000  0.30912700  1
  Mg  Mg7  1  0.54744400  0.58392400  0.33020100  1
  Mg  Mg8  1  0.78699300  0.99600100  0.39706900  1
  Mg  Mg9  1  0.62536700  0.70228200  0.37512900  1
  Mg  Mg10  1  0.20557600  0.91003600  0.31707200  1
  Mg  Mg11  1  0.39004400  0.29859000  0.30189700  1
  Mg  Mg12  1  0.70901400  0.88032100  0.35203500  1
  Mg  Mg13  1  0.28247400  0.08647500  0.29347300  1
  Mg  Mg14  1  0.34405100  0.10272900  0.39479800  1
  Mg  Mg15  1  0.36297600  0.19537100  0.34537600  1
  Mg  Mg16  1  0.27054600  0.80748600  0.55379900  1
  Mg  Mg17  1  0.20896900  0.79123100  0.45247500  1
  Mg  Mg18  1  0.92765300  0.19167800  0.47214400  1
  Mg  Mg19  1  0.72215700  0.71958000  0.53814500  1
  Mg  Mg20  1  0.76602600  0.89796000  0.45020400  1
  Mg  Mg21  1  0.50197900  0.40144800  0.41489700  1
  Mg  Mg22  1  0.84400600  0.01363900  0.49523800  1
  Mg  Mg23  1  0.63086300  0.57438000  0.50912700  1
  Mg  Mg24  1  0.34744400  0.98392400  0.53020100  1
  Mg  Mg25  1  0.58699300  0.39600100  0.59706900  1
  Mg  Mg26  1  0.42536700  0.10228200  0.57512900  1
  Mg  Mg27  1  0.00557600  0.31003600  0.51707200  1
  Mg  Mg28  1  0.19004400  0.69859000  0.50189700  1
  Mg  Mg29  1  0.42149400  0.22363900  0.43755100  1
  Mg  Mg30  1  0.13152600  0.67032100  0.40972200  1
  Mg  Mg31  1  0.50901400  0.28032100  0.55203500  1
  Mg  Mg32  1  0.08247400  0.48647500  0.49347300  1
  Mg  Mg33  1  0.05104100  0.49251300  0.43237600  1
  Mg  Mg34  1  0.14405100  0.50272900  0.59479800  1
  Mg  Mg35  1  0.16297600  0.59537100  0.54537600  1
  Mg  Mg36  1  0.07054600  0.20748600  0.75379900  1
  Mg  Mg37  1  0.00896900  0.19123100  0.65247500  1
  Mg  Mg38  1  0.72765300  0.59167800  0.67214400  1
  Mg  Mg39  1  0.52215700  0.11958000  0.73814500  1
  Mg  Mg40  1  0.56602600  0.29796000  0.65020400  1
  Mg  Mg41  1  0.30197900  0.80144800  0.61489700  1
  Mg  Mg42  1  0.64400600  0.41363900  0.69523800  1
  Mg  Mg43  1  0.43086300  0.97438000  0.70912700  1
  Mg  Mg44  1  0.14744400  0.38392400  0.73020100  1
  Mg  Mg45  1  0.38699300  0.79600100  0.79706900  1
  Mg  Mg46  1  0.22536700  0.50228200  0.77512900  1
  Mg  Mg47  1  0.80557600  0.71003600  0.71707200  1
  Mg  Mg48  1  0.99004400  0.09859000  0.70189700  1
  Mg  Mg49  1  0.22149400  0.62363900  0.63755100  1
  Mg  Mg50  1  0.93152600  0.07032100  0.60972200  1
  Mg  Mg51  1  0.30901400  0.68032100  0.75203500  1
  Mg  Mg52  1  0.88247400  0.88647500  0.69347300  1
  Mg  Mg53  1  0.85104100  0.89251300  0.63237600  1
  Mg  Mg54  1  0.94405100  0.90272900  0.79479800  1
  Mg  Mg55  1  0.96297600  0.99537100  0.74537600  1
  Zn  Zn56  1  0.49918900  0.55192400  0.27225300  1
  Zn  Zn57  1  0.90157600  0.34224500  0.27996200  1
  Zn  Zn58  1  0.09337600  0.64383300  0.35348900  1
  Zn  Zn59  1  0.53282100  0.04010100  0.34435200  1
  Zn  Zn60  1  0.71565600  0.45295500  0.30185800  1
  Zn  Zn61  1  0.87651000  0.74698000  0.32363600  1
  Zn  Zn62  1  0.25383100  0.94203600  0.37501900  1
  Zn  Zn63  1  0.79894400  0.53994500  0.38235700  1
  Zn  Zn64  1  0.98535200  0.40553700  0.38451300  1
  Zn  Zn65  1  0.58476300  0.70196400  0.28432800  1
  Zn  Zn66  1  0.85144400  0.15171600  0.36731000  1
  Zn  Zn67  1  0.17924200  0.27186700  0.38590800  1
  Zn  Zn68  1  0.03736400  0.04100600  0.34541500  1
  Zn  Zn69  1  0.16825600  0.79199600  0.36294500  1
  Zn  Zn70  1  0.57377700  0.22209300  0.26136400  1
  Zn  Zn71  1  0.37651000  0.74698000  0.32363600  1
  Zn  Zn72  1  0.00491400  0.49740800  0.34111900  1
  Zn  Zn73  1  0.30335300  0.54023100  0.38276300  1
  Zn  Zn74  1  0.66541400  0.27190200  0.38501700  1
  Zn  Zn75  1  0.74810500  0.99655300  0.30615400  1
  Zn  Zn76  1  0.08760600  0.22205800  0.26225600  1
  Zn  Zn77  1  0.44966700  0.95372900  0.26451000  1
  Zn  Zn78  1  0.22019900  0.45385900  0.30292100  1
  Zn  Zn79  1  0.95407600  0.95401500  0.26491600  1
  Zn  Zn80  1  0.76766800  0.08842300  0.26276000  1
  Zn  Zn81  1  0.65964400  0.85012700  0.29378400  1
  Zn  Zn82  1  0.29918900  0.95192400  0.47225300  1
  Zn  Zn83  1  0.70157600  0.74224500  0.47996200  1
  Zn  Zn84  1  0.89337600  0.04383300  0.55348900  1
  Zn  Zn85  1  0.33282100  0.44010100  0.54435200  1
  Zn  Zn86  1  0.95274500  0.82949600  0.40327600  1
  Zn  Zn87  1  0.51565600  0.85295500  0.50185800  1
  Zn  Zn88  1  0.67651000  0.14698000  0.52363600  1
  Zn  Zn89  1  0.05383100  0.34203600  0.57501900  1
  Zn  Zn90  1  0.59224500  0.57924900  0.42122400  1
  Zn  Zn91  1  0.09400100  0.06468300  0.44404900  1
  Zn  Zn92  1  0.59894400  0.93994500  0.58235700  1
  Zn  Zn93  1  0.78535200  0.80553700  0.58451300  1
  Zn  Zn94  1  0.38476300  0.10196400  0.48432800  1
  Zn  Zn95  1  0.88584800  0.16287900  0.41539700  1
  Zn  Zn96  1  0.65144400  0.55171600  0.56731000  1
  Zn  Zn97  1  0.96077500  0.31471100  0.42604900  1
  Zn  Zn98  1  0.97924200  0.67186700  0.58590800  1
  Zn  Zn99  1  0.45901900  0.82927700  0.40322300  1
  Zn  Zn100  1  0.83736400  0.44100600  0.54541500  1
  Zn  Zn101  1  0.96825600  0.19199600  0.56294500  1
  Zn  Zn102  1  0.37377700  0.62209300  0.46136400  1
  Zn  Zn103  1  0.60027500  0.06446500  0.44399700  1
  Zn  Zn104  1  0.17651000  0.14698000  0.52363600  1
  Zn  Zn105  1  0.80491400  0.89740800  0.54111900  1
  Zn  Zn106  1  0.10335300  0.94023100  0.58276300  1
  Zn  Zn107  1  0.46541400  0.67190200  0.58501700  1
  Zn  Zn108  1  0.54810500  0.39655300  0.50615400  1
  Zn  Zn109  1  0.88760600  0.62205800  0.46225600  1
  Zn  Zn110  1  0.66717100  0.73108100  0.43187600  1
  Zn  Zn111  1  0.24966700  0.35372900  0.46451000  1
  Zn  Zn112  1  0.02019900  0.85385900  0.50292100  1
  Zn  Zn113  1  0.27651000  0.94698000  0.42363600  1
  Zn  Zn114  1  0.75407600  0.35401500  0.46491600  1
  Zn  Zn115  1  0.56766800  0.48842300  0.46276000  1
  Zn  Zn116  1  0.45964400  0.25012700  0.49378400  1
  Zn  Zn117  1  0.09918900  0.35192400  0.67225300  1
  Zn  Zn118  1  0.50157600  0.14224500  0.67996200  1
  Zn  Zn119  1  0.69337600  0.44383300  0.75348900  1
  Zn  Zn120  1  0.13282100  0.84010100  0.74435200  1
  Zn  Zn121  1  0.75274500  0.22949600  0.60327600  1
  Zn  Zn122  1  0.31565600  0.25295500  0.70185800  1
  Zn  Zn123  1  0.47651000  0.54698000  0.72363600  1
  Zn  Zn124  1  0.85383100  0.74203600  0.77501900  1
  Zn  Zn125  1  0.39224500  0.97924900  0.62122400  1
  Zn  Zn126  1  0.89400100  0.46468300  0.64404900  1
  Zn  Zn127  1  0.39894400  0.33994500  0.78235700  1
  Zn  Zn128  1  0.58535200  0.20553700  0.78451300  1
  Zn  Zn129  1  0.18476300  0.50196400  0.68432800  1
  Zn  Zn130  1  0.68584800  0.56287900  0.61539700  1
  Zn  Zn131  1  0.45144400  0.95171600  0.76731000  1
  Zn  Zn132  1  0.76077500  0.71471100  0.62604900  1
  Zn  Zn133  1  0.77924200  0.07186700  0.78590800  1
  Zn  Zn134  1  0.25901900  0.22927700  0.60322300  1
  Zn  Zn135  1  0.63736400  0.84100600  0.74541500  1
  Zn  Zn136  1  0.76825600  0.59199600  0.76294500  1
  Zn  Zn137  1  0.17377700  0.02209300  0.66136400  1
  Zn  Zn138  1  0.40027500  0.46446500  0.64399700  1
  Zn  Zn139  1  0.97651000  0.54698000  0.72363600  1
  Zn  Zn140  1  0.60491400  0.29740800  0.74111900  1
  Zn  Zn141  1  0.90335300  0.34023100  0.78276300  1
  Zn  Zn142  1  0.26541400  0.07190200  0.78501700  1
  Zn  Zn143  1  0.34810500  0.79655300  0.70615400  1
  Zn  Zn144  1  0.68760600  0.02205800  0.66225600  1
  Zn  Zn145  1  0.46717100  0.13108100  0.63187600  1
  Zn  Zn146  1  0.04966700  0.75372900  0.66451000  1
  Zn  Zn147  1  0.82019900  0.25385900  0.70292100  1
  Zn  Zn148  1  0.07651000  0.34698000  0.62363600  1
  Zn  Zn149  1  0.55407600  0.75401500  0.66491600  1
  Zn  Zn150  1  0.36766800  0.88842300  0.66276000  1
  Zn  Zn151  1  0.25964400  0.65012700  0.69378400  1
