# generated using pymatgen
data_MgAg2
_symmetry_space_group_name_H-M   'P 1'
_cell_length_a   5.07886500
_cell_length_b   4.87780300
_cell_length_c   44.42055000
_cell_angle_alpha   90.00000000
_cell_angle_beta   90.00000000
_cell_angle_gamma   90.00000000
_symmetry_Int_Tables_number   1
_chemical_formula_structural   MgAg2
_chemical_formula_sum   'Mg12 Ag24'
_cell_volume   1100.46150985
_cell_formula_units_Z   12
loop_
 _symmetry_equiv_pos_site_id
 _symmetry_equiv_pos_as_xyz
  1  'x, y, z'
loop_
 _atom_site_type_symbol
 _atom_site_label
 _atom_site_symmetry_multiplicity
 _atom_site_fract_x
 _atom_site_fract_y
 _atom_site_fract_z
 _atom_site_occupancy
  Mg  Mg0  1  0.19670100  0.25000000  0.35000000  1
  Mg  Mg1  1  0.80329900  0.75000000  0.35000000  1
  Mg  Mg2  1  0.69670100  0.25000000  0.25000000  1
  Mg  Mg3  1  0.30329900  0.75000000  0.25000000  1
  Mg  Mg4  1  0.19670100  0.25000000  0.55000000  1
  Mg  Mg5  1  0.80329900  0.75000000  0.55000000  1
  Mg  Mg6  1  0.69670100  0.25000000  0.45000000  1
  Mg  Mg7  1  0.30329900  0.75000000  0.45000000  1
  Mg  Mg8  1  0.19670100  0.25000000  0.75000000  1
  Mg  Mg9  1  0.80329900  0.75000000  0.75000000  1
  Mg  Mg10  1  0.69670100  0.25000000  0.65000000  1
  Mg  Mg11  1  0.30329900  0.75000000  0.65000000  1
  Ag  Ag12  1  0.81473600  0.75000000  0.28329300  1
  Ag  Ag13  1  0.18526400  0.25000000  0.28329300  1
  Ag  Ag14  1  0.68526400  0.25000000  0.31670700  1
  Ag  Ag15  1  0.31473600  0.75000000  0.31670700  1
  Ag  Ag16  1  0.31473600  0.75000000  0.38329300  1
  Ag  Ag17  1  0.68526400  0.25000000  0.38329300  1
  Ag  Ag18  1  0.18526400  0.25000000  0.21670700  1
  Ag  Ag19  1  0.81473600  0.75000000  0.21670700  1
  Ag  Ag20  1  0.81473600  0.75000000  0.48329300  1
  Ag  Ag21  1  0.18526400  0.25000000  0.48329300  1
  Ag  Ag22  1  0.68526400  0.25000000  0.51670700  1
  Ag  Ag23  1  0.31473600  0.75000000  0.51670700  1
  Ag  Ag24  1  0.31473600  0.75000000  0.58329300  1
  Ag  Ag25  1  0.68526400  0.25000000  0.58329300  1
  Ag  Ag26  1  0.18526400  0.25000000  0.41670700  1
  Ag  Ag27  1  0.81473600  0.75000000  0.41670700  1
  Ag  Ag28  1  0.81473600  0.75000000  0.68329300  1
  Ag  Ag29  1  0.18526400  0.25000000  0.68329300  1
  Ag  Ag30  1  0.68526400  0.25000000  0.71670700  1
  Ag  Ag31  1  0.31473600  0.75000000  0.71670700  1
  Ag  Ag32  1  0.31473600  0.75000000  0.78329300  1
  Ag  Ag33  1  0.68526400  0.25000000  0.78329300  1
  Ag  Ag34  1  0.18526400  0.25000000  0.61670700  1
  Ag  Ag35  1  0.81473600  0.75000000  0.61670700  1
