# generated using pymatgen
data_Ca2Mg
_symmetry_space_group_name_H-M   'P 1'
_cell_length_a   7.29490878
_cell_length_b   8.95443086
_cell_length_c   45.28773100
_cell_angle_alpha   91.85004019
_cell_angle_beta   90.46163646
_cell_angle_gamma   111.66546572
_symmetry_Int_Tables_number   1
_chemical_formula_structural   Ca2Mg
_chemical_formula_sum   'Ca32 Mg16'
_cell_volume   2747.21906371
_cell_formula_units_Z   16
loop_
 _symmetry_equiv_pos_site_id
 _symmetry_equiv_pos_as_xyz
  1  'x, y, z'
loop_
 _atom_site_type_symbol
 _atom_site_label
 _atom_site_symmetry_multiplicity
 _atom_site_fract_x
 _atom_site_fract_y
 _atom_site_fract_z
 _atom_site_occupancy
  Ca  Ca0  1  0.55788600  0.93175000  0.26363700  1
  Ca  Ca1  1  0.94300100  0.33816600  0.23638600  1
  Ca  Ca2  1  0.51853700  0.50798800  0.22515300  1
  Ca  Ca3  1  0.90365200  0.91440400  0.19790100  1
  Ca  Ca4  1  0.63481000  0.77790300  0.34056000  1
  Ca  Ca5  1  0.01992500  0.18432000  0.31330900  1
  Ca  Ca6  1  0.59546000  0.35414200  0.30207600  1
  Ca  Ca7  1  0.98057500  0.76055800  0.27482400  1
  Ca  Ca8  1  0.71173300  0.62405700  0.41748300  1
  Ca  Ca9  1  0.09684800  0.03047300  0.39023200  1
  Ca  Ca10  1  0.67238300  0.20029600  0.37899900  1
  Ca  Ca11  1  0.05749800  0.60671200  0.35174700  1
  Ca  Ca12  1  0.78865600  0.47021100  0.49440600  1
  Ca  Ca13  1  0.17377100  0.87662700  0.46715500  1
  Ca  Ca14  1  0.74930600  0.04645000  0.45592200  1
  Ca  Ca15  1  0.13442100  0.45286600  0.42867000  1
  Ca  Ca16  1  0.86557900  0.31636500  0.57133000  1
  Ca  Ca17  1  0.25069400  0.72278100  0.54407800  1
  Ca  Ca18  1  0.82622900  0.89260400  0.53284500  1
  Ca  Ca19  1  0.21134400  0.29902000  0.50559400  1
  Ca  Ca20  1  0.94250200  0.16251900  0.64825300  1
  Ca  Ca21  1  0.32761700  0.56893500  0.62100100  1
  Ca  Ca22  1  0.90315200  0.73875700  0.60976800  1
  Ca  Ca23  1  0.28826700  0.14517400  0.58251700  1
  Ca  Ca24  1  0.01942500  0.00867300  0.72517600  1
  Ca  Ca25  1  0.40454000  0.41508900  0.69792400  1
  Ca  Ca26  1  0.98007500  0.58491100  0.68669100  1
  Ca  Ca27  1  0.36519000  0.99132700  0.65944000  1
  Ca  Ca28  1  0.09634800  0.85482600  0.80209900  1
  Ca  Ca29  1  0.48146300  0.26124300  0.77484700  1
  Ca  Ca30  1  0.05699900  0.43106500  0.76361400  1
  Ca  Ca31  1  0.44211400  0.83748100  0.73636300  1
  Mg  Mg32  1  0.24949400  0.13396600  0.24996200  1
  Mg  Mg33  1  0.21204500  0.71218700  0.21157600  1
  Mg  Mg34  1  0.32641700  0.98012000  0.32688500  1
  Mg  Mg35  1  0.28896800  0.55834100  0.28849900  1
  Mg  Mg36  1  0.40334000  0.82627400  0.40380800  1
  Mg  Mg37  1  0.36589100  0.40449500  0.36542200  1
  Mg  Mg38  1  0.48026300  0.67242800  0.48073200  1
  Mg  Mg39  1  0.44281400  0.25064900  0.44234500  1
  Mg  Mg40  1  0.55718600  0.51858200  0.55765500  1
  Mg  Mg41  1  0.51973700  0.09680300  0.51926800  1
  Mg  Mg42  1  0.63410900  0.36473600  0.63457800  1
  Mg  Mg43  1  0.59666000  0.94295700  0.59619200  1
  Mg  Mg44  1  0.71103200  0.21088900  0.71150100  1
  Mg  Mg45  1  0.67358300  0.78911100  0.67311500  1
  Mg  Mg46  1  0.78795500  0.05704300  0.78842400  1
  Mg  Mg47  1  0.75050600  0.63526400  0.75003800  1
