# generated using pymatgen
data_CeMg9
_symmetry_space_group_name_H-M   'P 1'
_cell_length_a   10.33012841
_cell_length_b   10.08648700
_cell_length_c   45.02798700
_cell_angle_alpha   90.00000000
_cell_angle_beta   83.41322442
_cell_angle_gamma   90.00000000
_symmetry_Int_Tables_number   1
_chemical_formula_structural   CeMg9
_chemical_formula_sum   'Ce8 Mg72'
_cell_volume   4660.70935486
_cell_formula_units_Z   8
loop_
 _symmetry_equiv_pos_site_id
 _symmetry_equiv_pos_as_xyz
  1  'x, y, z'
loop_
 _atom_site_type_symbol
 _atom_site_label
 _atom_site_symmetry_multiplicity
 _atom_site_fract_x
 _atom_site_fract_y
 _atom_site_fract_z
 _atom_site_occupancy
  Ce  Ce0  1  0.65837700  0.75000000  0.31052600  1
  Ce  Ce1  1  0.65837700  0.25000000  0.31052600  1
  Ce  Ce2  1  0.12504400  0.75000000  0.37719300  1
  Ce  Ce3  1  0.19171000  0.25000000  0.24386000  1
  Ce  Ce4  1  0.05837700  0.75000000  0.51052600  1
  Ce  Ce5  1  0.05837700  0.25000000  0.51052600  1
  Ce  Ce6  1  0.52504400  0.75000000  0.57719300  1
  Ce  Ce7  1  0.59171000  0.25000000  0.44386000  1
  Mg  Mg8  1  0.15837700  0.00000000  0.31052600  1
  Mg  Mg9  1  0.95837700  0.00000000  0.21052600  1
  Mg  Mg10  1  0.88548500  0.97841000  0.34297000  1
  Mg  Mg11  1  0.39882500  0.52159000  0.34297000  1
  Mg  Mg12  1  0.62593300  0.02159000  0.37541400  1
  Mg  Mg13  1  0.84196100  0.25000000  0.23827500  1
  Mg  Mg14  1  0.12504400  0.40231100  0.37719300  1
  Mg  Mg15  1  0.19171000  0.90231100  0.24386000  1
  Mg  Mg16  1  0.91792900  0.47841000  0.27808200  1
  Mg  Mg17  1  0.42835500  0.25000000  0.37614400  1
  Mg  Mg18  1  0.76971000  0.75000000  0.38277800  1
  Mg  Mg19  1  0.88548500  0.52159000  0.34297000  1
  Mg  Mg20  1  0.00636600  0.75000000  0.30389200  1
  Mg  Mg21  1  0.54704400  0.25000000  0.23827500  1
  Mg  Mg22  1  0.39882500  0.97841000  0.34297000  1
  Mg  Mg23  1  0.69082100  0.97841000  0.24563800  1
  Mg  Mg24  1  0.62593300  0.47841000  0.37541400  1
  Mg  Mg25  1  0.69082100  0.52159000  0.24563800  1
  Mg  Mg26  1  0.12504400  0.09768900  0.37719300  1
  Mg  Mg27  1  0.91792900  0.02159000  0.27808200  1
  Mg  Mg28  1  0.45837700  0.50000000  0.21052600  1
  Mg  Mg29  1  0.31702200  0.75000000  0.30389200  1
  Mg  Mg30  1  0.47479300  0.75000000  0.38277800  1
  Mg  Mg31  1  0.19171000  0.59768900  0.24386000  1
  Mg  Mg32  1  0.43126900  0.02159000  0.27808200  1
  Mg  Mg33  1  0.49397200  0.75000000  0.24490900  1
  Mg  Mg34  1  0.99973200  0.25000000  0.31716000  1
  Mg  Mg35  1  0.43126900  0.47841000  0.27808200  1
  Mg  Mg36  1  0.88839900  0.75000000  0.24490900  1
  Mg  Mg37  1  0.95837700  0.50000000  0.21052600  1
  Mg  Mg38  1  0.82278100  0.25000000  0.37614400  1
  Mg  Mg39  1  0.31038800  0.25000000  0.31716000  1
  Mg  Mg40  1  0.45837700  0.00000000  0.21052600  1
  Mg  Mg41  1  0.15837700  0.50000000  0.31052600  1
  Mg  Mg42  1  0.55837700  0.00000000  0.51052600  1
  Mg  Mg43  1  0.35837700  0.00000000  0.41052600  1
  Mg  Mg44  1  0.28548500  0.97841000  0.54297000  1
  Mg  Mg45  1  0.79882500  0.52159000  0.54297000  1
  Mg  Mg46  1  0.02593300  0.02159000  0.57541400  1
  Mg  Mg47  1  0.24196100  0.25000000  0.43827500  1
  Mg  Mg48  1  0.52504400  0.40231100  0.57719300  1
  Mg  Mg49  1  0.59171000  0.90231100  0.44386000  1
  Mg  Mg50  1  0.31792900  0.47841000  0.47808200  1
  Mg  Mg51  1  0.82835500  0.25000000  0.57614400  1
  Mg  Mg52  1  0.16971000  0.75000000  0.58277800  1
  Mg  Mg53  1  0.28548500  0.52159000  0.54297000  1
  Mg  Mg54  1  0.40636600  0.75000000  0.50389200  1
  Mg  Mg55  1  0.94704400  0.25000000  0.43827500  1
  Mg  Mg56  1  0.79882500  0.97841000  0.54297000  1
  Mg  Mg57  1  0.09082100  0.97841000  0.44563800  1
  Mg  Mg58  1  0.02593300  0.47841000  0.57541400  1
  Mg  Mg59  1  0.09082100  0.52159000  0.44563800  1
  Mg  Mg60  1  0.52504400  0.09768900  0.57719300  1
  Mg  Mg61  1  0.31792900  0.02159000  0.47808200  1
  Mg  Mg62  1  0.85837700  0.50000000  0.41052600  1
  Mg  Mg63  1  0.71702200  0.75000000  0.50389200  1
  Mg  Mg64  1  0.87479300  0.75000000  0.58277800  1
  Mg  Mg65  1  0.59171000  0.59768900  0.44386000  1
  Mg  Mg66  1  0.83126900  0.02159000  0.47808200  1
  Mg  Mg67  1  0.89397200  0.75000000  0.44490900  1
  Mg  Mg68  1  0.39973200  0.25000000  0.51716000  1
  Mg  Mg69  1  0.83126900  0.47841000  0.47808200  1
  Mg  Mg70  1  0.28839900  0.75000000  0.44490900  1
  Mg  Mg71  1  0.35837700  0.50000000  0.41052600  1
  Mg  Mg72  1  0.22278100  0.25000000  0.57614400  1
  Mg  Mg73  1  0.71038800  0.25000000  0.51716000  1
  Mg  Mg74  1  0.85837700  0.00000000  0.41052600  1
  Mg  Mg75  1  0.55837700  0.50000000  0.51052600  1
  Mg  Mg76  1  0.75837700  0.00000000  0.61052600  1
  Mg  Mg77  1  0.25837700  0.50000000  0.61052600  1
  Mg  Mg78  1  0.75837700  0.50000000  0.61052600  1
  Mg  Mg79  1  0.25837700  0.00000000  0.61052600  1
