# generated using pymatgen
data_Mg20Pt9
_symmetry_space_group_name_H-M   'P 1'
_cell_length_a   6.38589300
_cell_length_b   6.38589300
_cell_length_c   45.38023400
_cell_angle_alpha   90.00000000
_cell_angle_beta   90.00000000
_cell_angle_gamma   90.00000000
_symmetry_Int_Tables_number   1
_chemical_formula_structural   Mg20Pt9
_chemical_formula_sum   'Mg40 Pt18'
_cell_volume   1850.58912494
_cell_formula_units_Z   2
loop_
 _symmetry_equiv_pos_site_id
 _symmetry_equiv_pos_as_xyz
  1  'x, y, z'
loop_
 _atom_site_type_symbol
 _atom_site_label
 _atom_site_symmetry_multiplicity
 _atom_site_fract_x
 _atom_site_fract_y
 _atom_site_fract_z
 _atom_site_occupancy
  Mg  Mg0  1  0.31672000  0.18328000  0.29166700  1
  Mg  Mg1  1  0.18328000  0.68328000  0.29166700  1
  Mg  Mg2  1  0.18328000  0.31672000  0.22916700  1
  Mg  Mg3  1  0.31672000  0.81672000  0.22916700  1
  Mg  Mg4  1  0.81672000  0.68328000  0.22916700  1
  Mg  Mg5  1  0.68328000  0.18328000  0.22916700  1
  Mg  Mg6  1  0.68328000  0.81672000  0.29166700  1
  Mg  Mg7  1  0.81672000  0.31672000  0.29166700  1
  Mg  Mg8  1  0.31672000  0.18328000  0.41666700  1
  Mg  Mg9  1  0.18328000  0.68328000  0.41666700  1
  Mg  Mg10  1  0.18328000  0.31672000  0.35416700  1
  Mg  Mg11  1  0.31672000  0.81672000  0.35416700  1
  Mg  Mg12  1  0.81672000  0.68328000  0.35416700  1
  Mg  Mg13  1  0.68328000  0.18328000  0.35416700  1
  Mg  Mg14  1  0.68328000  0.81672000  0.41666700  1
  Mg  Mg15  1  0.81672000  0.31672000  0.41666700  1
  Mg  Mg16  1  0.31672000  0.18328000  0.54166700  1
  Mg  Mg17  1  0.18328000  0.68328000  0.54166700  1
  Mg  Mg18  1  0.18328000  0.31672000  0.47916700  1
  Mg  Mg19  1  0.31672000  0.81672000  0.47916700  1
  Mg  Mg20  1  0.81672000  0.68328000  0.47916700  1
  Mg  Mg21  1  0.68328000  0.18328000  0.47916700  1
  Mg  Mg22  1  0.68328000  0.81672000  0.54166700  1
  Mg  Mg23  1  0.81672000  0.31672000  0.54166700  1
  Mg  Mg24  1  0.31672000  0.18328000  0.66666700  1
  Mg  Mg25  1  0.18328000  0.68328000  0.66666700  1
  Mg  Mg26  1  0.18328000  0.31672000  0.60416700  1
  Mg  Mg27  1  0.31672000  0.81672000  0.60416700  1
  Mg  Mg28  1  0.81672000  0.68328000  0.60416700  1
  Mg  Mg29  1  0.68328000  0.18328000  0.60416700  1
  Mg  Mg30  1  0.68328000  0.81672000  0.66666700  1
  Mg  Mg31  1  0.81672000  0.31672000  0.66666700  1
  Mg  Mg32  1  0.31672000  0.18328000  0.79166700  1
  Mg  Mg33  1  0.18328000  0.68328000  0.79166700  1
  Mg  Mg34  1  0.18328000  0.31672000  0.72916700  1
  Mg  Mg35  1  0.31672000  0.81672000  0.72916700  1
  Mg  Mg36  1  0.81672000  0.68328000  0.72916700  1
  Mg  Mg37  1  0.68328000  0.18328000  0.72916700  1
  Mg  Mg38  1  0.68328000  0.81672000  0.79166700  1
  Mg  Mg39  1  0.81672000  0.31672000  0.79166700  1
  Pt  Pt40  1  0.00000000  0.00000000  0.26041700  1
  Pt  Pt41  1  0.50000000  0.50000000  0.26041700  1
  Pt  Pt42  1  0.00000000  0.00000000  0.32291700  1
  Pt  Pt43  1  0.00000000  0.00000000  0.38541700  1
  Pt  Pt44  1  0.50000000  0.50000000  0.38541700  1
  Pt  Pt45  1  0.50000000  0.50000000  0.32291700  1
  Pt  Pt46  1  0.00000000  0.00000000  0.44791700  1
  Pt  Pt47  1  0.00000000  0.00000000  0.51041700  1
  Pt  Pt48  1  0.50000000  0.50000000  0.51041700  1
  Pt  Pt49  1  0.50000000  0.50000000  0.44791700  1
  Pt  Pt50  1  0.00000000  0.00000000  0.57291700  1
  Pt  Pt51  1  0.00000000  0.00000000  0.63541700  1
  Pt  Pt52  1  0.50000000  0.50000000  0.63541700  1
  Pt  Pt53  1  0.50000000  0.50000000  0.57291700  1
  Pt  Pt54  1  0.00000000  0.00000000  0.69791700  1
  Pt  Pt55  1  0.00000000  0.00000000  0.76041700  1
  Pt  Pt56  1  0.50000000  0.50000000  0.76041700  1
  Pt  Pt57  1  0.50000000  0.50000000  0.69791700  1
