# generated using pymatgen
data_Mg2Ag
_symmetry_space_group_name_H-M   'P 1'
_cell_length_a   4.71873362
_cell_length_b   11.26367700
_cell_length_c   41.59392600
_cell_angle_alpha   88.09939546
_cell_angle_beta   93.25178580
_cell_angle_gamma   77.90889136
_symmetry_Int_Tables_number   1
_chemical_formula_structural   Mg2Ag
_chemical_formula_sum   'Mg44 Ag22'
_cell_volume   2155.90649391
_cell_formula_units_Z   22
loop_
 _symmetry_equiv_pos_site_id
 _symmetry_equiv_pos_as_xyz
  1  'x, y, z'
loop_
 _atom_site_type_symbol
 _atom_site_label
 _atom_site_symmetry_multiplicity
 _atom_site_fract_x
 _atom_site_fract_y
 _atom_site_fract_z
 _atom_site_occupancy
  Mg  Mg0  1  0.45645500  0.34253200  0.19988800  1
  Mg  Mg1  1  0.59910000  0.10191200  0.24455700  1
  Mg  Mg2  1  0.73423300  0.81475400  0.22766500  1
  Mg  Mg3  1  0.32132200  0.62969000  0.21677900  1
  Mg  Mg4  1  0.01201100  0.28697700  0.25544300  1
  Mg  Mg5  1  0.15465600  0.04635700  0.30011200  1
  Mg  Mg6  1  0.28978900  0.75919900  0.28322100  1
  Mg  Mg7  1  0.87687800  0.57413500  0.27233500  1
  Mg  Mg8  1  0.56756700  0.23142100  0.31099900  1
  Mg  Mg9  1  0.71021100  0.99080100  0.35566800  1
  Mg  Mg10  1  0.84534400  0.70364300  0.33877600  1
  Mg  Mg11  1  0.43243300  0.51857900  0.32789000  1
  Mg  Mg12  1  0.12312200  0.17586500  0.36655400  1
  Mg  Mg13  1  0.26576700  0.93524600  0.41122400  1
  Mg  Mg14  1  0.40090000  0.64808800  0.39433200  1
  Mg  Mg15  1  0.98798900  0.46302300  0.38344600  1
  Mg  Mg16  1  0.67867800  0.12031000  0.42211000  1
  Mg  Mg17  1  0.82132200  0.87969000  0.46677900  1
  Mg  Mg18  1  0.95645500  0.59253200  0.44988800  1
  Mg  Mg19  1  0.54354500  0.40746800  0.43900100  1
  Mg  Mg20  1  0.23423300  0.06475400  0.47766500  1
  Mg  Mg21  1  0.37687800  0.82413500  0.52233500  1
  Mg  Mg22  1  0.51201100  0.53697700  0.50544300  1
  Mg  Mg23  1  0.09910000  0.35191200  0.49455700  1
  Mg  Mg24  1  0.78978900  0.00919900  0.53322100  1
  Mg  Mg25  1  0.93243300  0.76857900  0.57789000  1
  Mg  Mg26  1  0.06756700  0.48142100  0.56099900  1
  Mg  Mg27  1  0.65465600  0.29635700  0.55011200  1
  Mg  Mg28  1  0.34534400  0.95364300  0.58877600  1
  Mg  Mg29  1  0.48798900  0.71302300  0.63344600  1
  Mg  Mg30  1  0.62312200  0.42586500  0.61655400  1
  Mg  Mg31  1  0.21021100  0.24080100  0.60566800  1
  Mg  Mg32  1  0.90090000  0.89808800  0.64433200  1
  Mg  Mg33  1  0.04354500  0.65746800  0.68900100  1
  Mg  Mg34  1  0.17867800  0.37031000  0.67211000  1
  Mg  Mg35  1  0.76576700  0.18524600  0.66122400  1
  Mg  Mg36  1  0.45645500  0.84253200  0.69988800  1
  Mg  Mg37  1  0.59910000  0.60191200  0.74455700  1
  Mg  Mg38  1  0.73423300  0.31475400  0.72766500  1
  Mg  Mg39  1  0.32132200  0.12969000  0.71677900  1
  Mg  Mg40  1  0.01201100  0.78697700  0.75544300  1
  Mg  Mg41  1  0.15465600  0.54635700  0.80011200  1
  Mg  Mg42  1  0.28978900  0.25919900  0.78322100  1
  Mg  Mg43  1  0.87687800  0.07413500  0.77233500  1
  Ag  Ag44  1  0.16666700  0.95833300  0.23611100  1
  Ag  Ag45  1  0.88888900  0.48611100  0.20833300  1
  Ag  Ag46  1  0.72222200  0.90277800  0.29166700  1
  Ag  Ag47  1  0.44444400  0.43055600  0.26388900  1
  Ag  Ag48  1  0.27777800  0.84722200  0.34722200  1
  Ag  Ag49  1  0.00000000  0.37500000  0.31944400  1
  Ag  Ag50  1  0.83333300  0.79166700  0.40277800  1
  Ag  Ag51  1  0.55555600  0.31944400  0.37500000  1
  Ag  Ag52  1  0.38888900  0.73611100  0.45833300  1
  Ag  Ag53  1  0.11111100  0.26388900  0.43055600  1
  Ag  Ag54  1  0.94444400  0.68055600  0.51388900  1
  Ag  Ag55  1  0.66666700  0.20833300  0.48611100  1
  Ag  Ag56  1  0.50000000  0.62500000  0.56944400  1
  Ag  Ag57  1  0.22222200  0.15277800  0.54166700  1
  Ag  Ag58  1  0.05555600  0.56944400  0.62500000  1
  Ag  Ag59  1  0.77777800  0.09722200  0.59722200  1
  Ag  Ag60  1  0.61111100  0.51388900  0.68055600  1
  Ag  Ag61  1  0.33333300  0.04166700  0.65277800  1
  Ag  Ag62  1  0.16666700  0.45833300  0.73611100  1
  Ag  Ag63  1  0.88888900  0.98611100  0.70833300  1
  Ag  Ag64  1  0.72222200  0.40277800  0.79166700  1
  Ag  Ag65  1  0.44444400  0.93055600  0.76388900  1
