# generated using pymatgen
data_Mg19Ag7
_symmetry_space_group_name_H-M   'P 1'
_cell_length_a   6.16428200
_cell_length_b   7.89381708
_cell_length_c   43.60343000
_cell_angle_alpha   94.18337805
_cell_angle_beta   90.00000000
_cell_angle_gamma   67.01749644
_symmetry_Int_Tables_number   1
_chemical_formula_structural   Mg19Ag7
_chemical_formula_sum   'Mg38 Ag14'
_cell_volume   1947.17441558
_cell_formula_units_Z   2
loop_
 _symmetry_equiv_pos_site_id
 _symmetry_equiv_pos_as_xyz
  1  'x, y, z'
loop_
 _atom_site_type_symbol
 _atom_site_label
 _atom_site_symmetry_multiplicity
 _atom_site_fract_x
 _atom_site_fract_y
 _atom_site_fract_z
 _atom_site_occupancy
  Mg  Mg0  1  0.96098500  0.07803000  0.27848500  1
  Mg  Mg1  1  0.66507600  0.66984900  0.26318200  1
  Mg  Mg2  1  0.71098500  0.57803000  0.36181800  1
  Mg  Mg3  1  0.32643900  0.83439400  0.31909100  1
  Mg  Mg4  1  0.83916700  0.83439400  0.31909100  1
  Mg  Mg5  1  0.53689400  0.41348500  0.30590900  1
  Mg  Mg6  1  0.04962200  0.41348500  0.30590900  1
  Mg  Mg7  1  0.41507600  0.16984900  0.34651500  1
  Mg  Mg8  1  0.46098500  0.07803000  0.44515200  1
  Mg  Mg9  1  0.07643900  0.33439400  0.40242400  1
  Mg  Mg10  1  0.58916700  0.33439400  0.40242400  1
  Mg  Mg11  1  0.28689400  0.91348500  0.38924200  1
  Mg  Mg12  1  0.79962200  0.91348500  0.38924200  1
  Mg  Mg13  1  0.16507600  0.66984900  0.42984800  1
  Mg  Mg14  1  0.21098500  0.57803000  0.52848500  1
  Mg  Mg15  1  0.82643900  0.83439400  0.48575800  1
  Mg  Mg16  1  0.33916700  0.83439400  0.48575800  1
  Mg  Mg17  1  0.03689400  0.41348500  0.47257600  1
  Mg  Mg18  1  0.54962200  0.41348500  0.47257600  1
  Mg  Mg19  1  0.91507600  0.16984900  0.51318200  1
  Mg  Mg20  1  0.96098500  0.07803000  0.61181800  1
  Mg  Mg21  1  0.57643900  0.33439400  0.56909100  1
  Mg  Mg22  1  0.08916700  0.33439400  0.56909100  1
  Mg  Mg23  1  0.78689400  0.91348500  0.55590900  1
  Mg  Mg24  1  0.29962200  0.91348500  0.55590900  1
  Mg  Mg25  1  0.66507600  0.66984900  0.59651500  1
  Mg  Mg26  1  0.71098500  0.57803000  0.69515200  1
  Mg  Mg27  1  0.32643900  0.83439400  0.65242400  1
  Mg  Mg28  1  0.83916700  0.83439400  0.65242400  1
  Mg  Mg29  1  0.53689400  0.41348500  0.63924200  1
  Mg  Mg30  1  0.04962200  0.41348500  0.63924200  1
  Mg  Mg31  1  0.41507600  0.16984900  0.67984800  1
  Mg  Mg32  1  0.46098500  0.07803000  0.77848500  1
  Mg  Mg33  1  0.07643900  0.33439400  0.73575800  1
  Mg  Mg34  1  0.58916700  0.33439400  0.73575800  1
  Mg  Mg35  1  0.28689400  0.91348500  0.72257600  1
  Mg  Mg36  1  0.79962200  0.91348500  0.72257600  1
  Mg  Mg37  1  0.16507600  0.66984900  0.76318200  1
  Ag  Ag38  1  0.45886400  0.08227300  0.27777800  1
  Ag  Ag39  1  0.16719700  0.66560600  0.26388900  1
  Ag  Ag40  1  0.20886400  0.58227300  0.36111100  1
  Ag  Ag41  1  0.91719700  0.16560600  0.34722200  1
  Ag  Ag42  1  0.95886400  0.08227300  0.44444400  1
  Ag  Ag43  1  0.66719700  0.66560600  0.43055600  1
  Ag  Ag44  1  0.70886400  0.58227300  0.52777800  1
  Ag  Ag45  1  0.41719700  0.16560600  0.51388900  1
  Ag  Ag46  1  0.45886400  0.08227300  0.61111100  1
  Ag  Ag47  1  0.16719700  0.66560600  0.59722200  1
  Ag  Ag48  1  0.20886400  0.58227300  0.69444400  1
  Ag  Ag49  1  0.91719700  0.16560600  0.68055600  1
  Ag  Ag50  1  0.95886400  0.08227300  0.77777800  1
  Ag  Ag51  1  0.66719700  0.66560600  0.76388900  1
