# generated using pymatgen
data_Mg13Au7
_symmetry_space_group_name_H-M   'P 1'
_cell_length_a   6.30829800
_cell_length_b   9.63509784
_cell_length_c   43.05516600
_cell_angle_alpha   93.60749084
_cell_angle_beta   90.00000000
_cell_angle_gamma   90.00000000
_symmetry_Int_Tables_number   1
_chemical_formula_structural   Mg13Au7
_chemical_formula_sum   'Mg52 Au28'
_cell_volume   2611.75355536
_cell_formula_units_Z   4
loop_
 _symmetry_equiv_pos_site_id
 _symmetry_equiv_pos_as_xyz
  1  'x, y, z'
loop_
 _atom_site_type_symbol
 _atom_site_label
 _atom_site_symmetry_multiplicity
 _atom_site_fract_x
 _atom_site_fract_y
 _atom_site_fract_z
 _atom_site_occupancy
  Mg  Mg0  1  0.16681800  0.03477800  0.77542900  1
  Mg  Mg1  1  0.66681800  0.71342600  0.73972300  1
  Mg  Mg2  1  0.83318200  0.21342600  0.73972300  1
  Mg  Mg3  1  0.33318200  0.53477800  0.77542900  1
  Mg  Mg4  1  0.16681800  0.21659700  0.68452000  1
  Mg  Mg5  1  0.66681800  0.89524400  0.64881400  1
  Mg  Mg6  1  0.83318200  0.39524400  0.64881400  1
  Mg  Mg7  1  0.33318200  0.71659700  0.68452000  1
  Mg  Mg8  1  0.53839600  0.41880300  0.70698700  1
  Mg  Mg9  1  0.03839600  0.51121900  0.71725500  1
  Mg  Mg10  1  0.46160400  0.01121900  0.71725500  1
  Mg  Mg11  1  0.96160400  0.91880300  0.70698700  1
  Mg  Mg12  1  0.16681800  0.39841500  0.59361000  1
  Mg  Mg13  1  0.66681800  0.07706200  0.55790500  1
  Mg  Mg14  1  0.83318200  0.57706200  0.55790500  1
  Mg  Mg15  1  0.33318200  0.89841500  0.59361000  1
  Mg  Mg16  1  0.53839600  0.60062100  0.61607800  1
  Mg  Mg17  1  0.03839600  0.69303700  0.62634600  1
  Mg  Mg18  1  0.46160400  0.19303700  0.62634600  1
  Mg  Mg19  1  0.96160400  0.10062100  0.61607800  1
  Mg  Mg20  1  0.16681800  0.58023300  0.50270100  1
  Mg  Mg21  1  0.66681800  0.25888100  0.46699600  1
  Mg  Mg22  1  0.83318200  0.75888100  0.46699600  1
  Mg  Mg23  1  0.33318200  0.08023300  0.50270100  1
  Mg  Mg24  1  0.53839600  0.78244000  0.52516900  1
  Mg  Mg25  1  0.03839600  0.87485600  0.53543700  1
  Mg  Mg26  1  0.46160400  0.37485600  0.53543700  1
  Mg  Mg27  1  0.96160400  0.28244000  0.52516900  1
  Mg  Mg28  1  0.16681800  0.76205100  0.41179200  1
  Mg  Mg29  1  0.66681800  0.44069900  0.37608600  1
  Mg  Mg30  1  0.83318200  0.94069900  0.37608600  1
  Mg  Mg31  1  0.33318200  0.26205100  0.41179200  1
  Mg  Mg32  1  0.53839600  0.96425800  0.43426000  1
  Mg  Mg33  1  0.03839600  0.05667400  0.44452800  1
  Mg  Mg34  1  0.46160400  0.55667400  0.44452800  1
  Mg  Mg35  1  0.96160400  0.46425800  0.43426000  1
  Mg  Mg36  1  0.16681800  0.94386900  0.32088300  1
  Mg  Mg37  1  0.66681800  0.62251700  0.28517700  1
  Mg  Mg38  1  0.83318200  0.12251700  0.28517700  1
  Mg  Mg39  1  0.33318200  0.44386900  0.32088300  1
  Mg  Mg40  1  0.53839600  0.14607600  0.34335100  1
  Mg  Mg41  1  0.03839600  0.23849200  0.35361900  1
  Mg  Mg42  1  0.46160400  0.73849200  0.35361900  1
  Mg  Mg43  1  0.96160400  0.64607600  0.34335100  1
  Mg  Mg44  1  0.16681800  0.12568700  0.22997400  1
  Mg  Mg45  1  0.66681800  0.80433500  0.19426800  1
  Mg  Mg46  1  0.83318200  0.30433500  0.19426800  1
  Mg  Mg47  1  0.33318200  0.62568700  0.22997400  1
  Mg  Mg48  1  0.53839600  0.32789400  0.25244200  1
  Mg  Mg49  1  0.03839600  0.42031000  0.26271000  1
  Mg  Mg50  1  0.46160400  0.92031000  0.26271000  1
  Mg  Mg51  1  0.96160400  0.82789400  0.25244200  1
  Au  Au52  1  0.73655600  0.97286800  0.76855000  1
  Au  Au53  1  0.23655600  0.77533600  0.74660200  1
  Au  Au54  1  0.26344400  0.27533600  0.74660200  1
  Au  Au55  1  0.76344400  0.47286800  0.76855000  1
  Au  Au56  1  0.73655600  0.15468600  0.67764100  1
  Au  Au57  1  0.23655600  0.95715400  0.65569300  1
  Au  Au58  1  0.26344400  0.45715400  0.65569300  1
  Au  Au59  1  0.76344400  0.65468600  0.67764100  1
  Au  Au60  1  0.73655600  0.33650500  0.58673200  1
  Au  Au61  1  0.23655600  0.13897200  0.56478400  1
  Au  Au62  1  0.26344400  0.63897200  0.56478400  1
  Au  Au63  1  0.76344400  0.83650500  0.58673200  1
  Au  Au64  1  0.73655600  0.51832300  0.49582200  1
  Au  Au65  1  0.23655600  0.32079100  0.47387400  1
  Au  Au66  1  0.26344400  0.82079100  0.47387400  1
  Au  Au67  1  0.76344400  0.01832300  0.49582200  1
  Au  Au68  1  0.73655600  0.70014100  0.40491300  1
  Au  Au69  1  0.23655600  0.50260900  0.38296500  1
  Au  Au70  1  0.26344400  0.00260900  0.38296500  1
  Au  Au71  1  0.76344400  0.20014100  0.40491300  1
  Au  Au72  1  0.73655600  0.88195900  0.31400400  1
  Au  Au73  1  0.23655600  0.68442700  0.29205600  1
  Au  Au74  1  0.26344400  0.18442700  0.29205600  1
  Au  Au75  1  0.76344400  0.38195900  0.31400400  1
  Au  Au76  1  0.73655600  0.06377700  0.22309500  1
  Au  Au77  1  0.23655600  0.86624500  0.20114700  1
  Au  Au78  1  0.26344400  0.36624500  0.20114700  1
  Au  Au79  1  0.76344400  0.56377700  0.22309500  1
