# generated using pymatgen
data_Mg32Zn57
_symmetry_space_group_name_H-M   'P 1'
_cell_length_a   5.07402229
_cell_length_b   14.70723601
_cell_length_c   50.49845100
_cell_angle_alpha   88.21601723
_cell_angle_beta   89.67566990
_cell_angle_gamma   90.29193359
_symmetry_Int_Tables_number   1
_chemical_formula_structural   Mg32Zn57
_chemical_formula_sum   'Mg32 Zn57'
_cell_volume   3766.49971225
_cell_formula_units_Z   1
loop_
 _symmetry_equiv_pos_site_id
 _symmetry_equiv_pos_as_xyz
  1  'x, y, z'
loop_
 _atom_site_type_symbol
 _atom_site_label
 _atom_site_symmetry_multiplicity
 _atom_site_fract_x
 _atom_site_fract_y
 _atom_site_fract_z
 _atom_site_occupancy
  Mg  Mg0  1  0.59113800  0.08364900  0.26502100  1
  Mg  Mg1  1  0.08835100  0.10010200  0.43496400  1
  Mg  Mg2  1  0.09697700  0.59634600  0.29982800  1
  Mg  Mg3  1  0.59452900  0.81076800  0.48130400  1
  Mg  Mg4  1  0.59318000  0.18639300  0.45994300  1
  Mg  Mg5  1  0.59504200  0.91110300  0.30933500  1
  Mg  Mg6  1  0.09080200  0.39930800  0.27263900  1
  Mg  Mg7  1  0.59034400  0.78166800  0.42324100  1
  Mg  Mg8  1  0.59161600  0.28087500  0.29143200  1
  Mg  Mg9  1  0.59169300  0.40604300  0.44460200  1
  Mg  Mg10  1  0.58789700  0.24609100  0.35471800  1
  Mg  Mg11  1  0.09325700  0.56156200  0.36311400  1
  Mg  Mg12  1  0.09103600  0.89470900  0.44887000  1
  Mg  Mg13  1  0.59213400  0.71544700  0.28187400  1
  Mg  Mg14  1  0.09274000  0.12699000  0.37267200  1
  Mg  Mg15  1  0.59407100  0.44312900  0.38190700  1
  Mg  Mg16  1  0.09373500  0.75878700  0.38952400  1
  Mg  Mg17  1  0.08983100  0.93133400  0.34521100  1
  Mg  Mg18  1  0.09652200  0.49233500  0.46958100  1
  Mg  Mg19  1  0.09383800  0.69772800  0.45567500  1
  Mg  Mg20  1  0.09113800  0.83364900  0.51502100  1
  Mg  Mg21  1  0.59697700  0.34634600  0.54982800  1
  Mg  Mg22  1  0.09504200  0.66110300  0.55933500  1
  Mg  Mg23  1  0.59080200  0.14930800  0.52263900  1
  Mg  Mg24  1  0.09161600  0.03087500  0.54143200  1
  Mg  Mg25  1  0.08789700  0.99609100  0.60471800  1
  Mg  Mg26  1  0.59325700  0.31156200  0.61311400  1
  Mg  Mg27  1  0.09213400  0.46544700  0.53187400  1
  Mg  Mg28  1  0.59274000  0.87699000  0.62267200  1
  Mg  Mg29  1  0.09407100  0.19312900  0.63190700  1
  Mg  Mg30  1  0.59373500  0.50878700  0.63952400  1
  Mg  Mg31  1  0.58983100  0.68133400  0.59521100  1
  Zn  Zn32  1  0.08833500  0.16623000  0.48997100  1
  Zn  Zn33  1  0.59170700  0.98777000  0.44333300  1
  Zn  Zn34  1  0.09594900  0.26176300  0.32387600  1
  Zn  Zn35  1  0.34182900  0.58409100  0.41609000  1
  Zn  Zn36  1  0.83759400  0.26409600  0.40763100  1
  Zn  Zn37  1  0.33948400  0.01059000  0.48743300  1
  Zn  Zn38  1  0.84243700  0.42121800  0.32727300  1
  Zn  Zn39  1  0.09653800  0.42620700  0.41457400  1
  Zn  Zn40  1  0.59324300  0.02705400  0.35853100  1
  Zn  Zn41  1  0.84086900  0.32836000  0.49700800  1
  Zn  Zn42  1  0.83902800  0.10446000  0.31955400  1
  Zn  Zn43  1  0.09156100  0.99772500  0.28757000  1
  Zn  Zn44  1  0.59285200  0.49555500  0.28653700  1
  Zn  Zn45  1  0.09794500  0.73080000  0.25006800  1
  Zn  Zn46  1  0.59316600  0.60466600  0.46121200  1
  Zn  Zn47  1  0.09163000  0.81538300  0.29601500  1
  Zn  Zn48  1  0.35158900  0.89363600  0.25519900  1
  Zn  Zn49  1  0.34400400  0.26407700  0.40753700  1
  Zn  Zn50  1  0.84538900  0.58184700  0.41711300  1
  Zn  Zn51  1  0.09202100  0.34688200  0.36800800  1
  Zn  Zn52  1  0.33328400  0.94880100  0.39934700  1
  Zn  Zn53  1  0.34727900  0.32834100  0.49691400  1
  Zn  Zn54  1  0.34243700  0.42121800  0.32727300  1
  Zn  Zn55  1  0.08688600  0.18596200  0.27799100  1
  Zn  Zn56  1  0.34309000  0.10355800  0.31993100  1
  Zn  Zn57  1  0.83819000  0.89611400  0.25453800  1
  Zn  Zn58  1  0.59798700  0.65647500  0.37655400  1
  Zn  Zn59  1  0.84668300  0.94632200  0.40000700  1
  Zn  Zn60  1  0.58692800  0.11163600  0.40447700  1
  Zn  Zn61  1  0.34178300  0.73887800  0.33461500  1
  Zn  Zn62  1  0.84304400  0.00834600  0.48845600  1
  Zn  Zn63  1  0.09243700  0.29621800  0.45227300  1
  Zn  Zn64  1  0.84584500  0.73797600  0.33499100  1
  Zn  Zn65  1  0.59331200  0.84471100  0.36697600  1
  Zn  Zn66  1  0.58892400  0.58067300  0.33067000  1
  Zn  Zn67  1  0.59594900  0.01176300  0.57387600  1
  Zn  Zn68  1  0.34243700  0.17121800  0.57727300  1
  Zn  Zn69  1  0.09324300  0.77705400  0.60853100  1
  Zn  Zn70  1  0.33902800  0.85446000  0.56955400  1
  Zn  Zn71  1  0.59156100  0.74772500  0.53757000  1
  Zn  Zn72  1  0.09285200  0.24555500  0.53653700  1
  Zn  Zn73  1  0.59794500  0.48080000  0.50006800  1
  Zn  Zn74  1  0.59163000  0.56538300  0.54601500  1
  Zn  Zn75  1  0.85158900  0.64363600  0.50519900  1
  Zn  Zn76  1  0.59202100  0.09688200  0.61800800  1
  Zn  Zn77  1  0.83328400  0.69880100  0.64934700  1
  Zn  Zn78  1  0.84243700  0.17121800  0.57727300  1
  Zn  Zn79  1  0.58688600  0.93596200  0.52799100  1
  Zn  Zn80  1  0.84309000  0.85355800  0.56993100  1
  Zn  Zn81  1  0.33819000  0.64611400  0.50453800  1
  Zn  Zn82  1  0.09798700  0.40647500  0.62655400  1
  Zn  Zn83  1  0.34668300  0.69632200  0.65000700  1
  Zn  Zn84  1  0.08692800  0.86163600  0.65447700  1
  Zn  Zn85  1  0.84178300  0.48887800  0.58461500  1
  Zn  Zn86  1  0.34584500  0.48797600  0.58499100  1
  Zn  Zn87  1  0.09331200  0.59471100  0.61697600  1
  Zn  Zn88  1  0.08892400  0.33067300  0.58067000  1
