# generated using pymatgen
data_Mg10Be129
_symmetry_space_group_name_H-M   'P 1'
_cell_length_a   7.13400264
_cell_length_b   7.13400270
_cell_length_c   46.78078400
_cell_angle_alpha   85.62699019
_cell_angle_beta   85.62699015
_cell_angle_gamma   60.00000065
_symmetry_Int_Tables_number   1
_chemical_formula_structural   Mg10Be129
_chemical_formula_sum   'Mg10 Be129'
_cell_volume   2053.87870868
_cell_formula_units_Z   1
loop_
 _symmetry_equiv_pos_site_id
 _symmetry_equiv_pos_as_xyz
  1  'x, y, z'
loop_
 _atom_site_type_symbol
 _atom_site_label
 _atom_site_symmetry_multiplicity
 _atom_site_fract_x
 _atom_site_fract_y
 _atom_site_fract_z
 _atom_site_occupancy
  Mg  Mg0  1  0.55355800  0.17484200  0.78348200  1
  Mg  Mg1  1  0.24105800  0.86234200  0.72098200  1
  Mg  Mg2  1  0.92855800  0.54984200  0.65848200  1
  Mg  Mg3  1  0.61605800  0.23734200  0.59598200  1
  Mg  Mg4  1  0.30355800  0.92484200  0.53348200  1
  Mg  Mg5  1  0.99105800  0.61234200  0.47098200  1
  Mg  Mg6  1  0.67855800  0.29984200  0.40848200  1
  Mg  Mg7  1  0.36605800  0.98734200  0.34598200  1
  Mg  Mg8  1  0.05355800  0.67484200  0.28348200  1
  Mg  Mg9  1  0.74105800  0.36234200  0.22098200  1
  Be  Be10  1  0.89730800  0.51859200  0.75223200  1
  Be  Be11  1  0.58480800  0.20609200  0.68973200  1
  Be  Be12  1  0.71569400  0.56212000  0.71590900  1
  Be  Be13  1  0.25333600  0.64947900  0.77840900  1
  Be  Be14  1  0.94376600  0.79019200  0.80655200  1
  Be  Be15  1  0.16890800  0.14621300  0.80655200  1
  Be  Be16  1  0.62570700  0.89097100  0.69791200  1
  Be  Be17  1  0.38421500  0.87462000  0.77840900  1
  Be  Be18  1  0.26968700  0.47213300  0.69791200  1
  Be  Be19  1  0.94083600  0.69300000  0.71590900  1
  Be  Be20  1  0.07171500  0.33697900  0.71590900  1
  Be  Be21  1  0.21242900  0.47769200  0.74405200  1
  Be  Be22  1  0.85377900  0.34418400  0.78855500  1
  Be  Be23  1  0.16334900  0.20347100  0.76041200  1
  Be  Be24  1  0.72290000  0.70020500  0.78855500  1
  Be  Be25  1  0.63126600  0.83371300  0.74405200  1
  Be  Be26  1  0.58218700  0.55949200  0.76041200  1
  Be  Be27  1  0.02819400  0.00550000  0.77840900  1
  Be  Be28  1  0.85084900  0.24699200  0.69791200  1
  Be  Be29  1  0.52492900  0.56505100  0.80655200  1
  Be  Be30  1  0.41040000  0.16256400  0.72605500  1
  Be  Be31  1  0.54127900  0.38770500  0.72605500  1
  Be  Be32  1  0.76642100  0.03168400  0.72605500  1
  Be  Be33  1  0.85640800  0.25255100  0.74405200  1
  Be  Be34  1  0.07892100  0.47506400  0.78855500  1
  Be  Be35  1  0.93820700  0.78463300  0.76041200  1
  Be  Be36  1  0.27230800  0.89359200  0.62723200  1
  Be  Be37  1  0.95980800  0.58109200  0.56473200  1
  Be  Be38  1  0.09069400  0.93712000  0.59090900  1
  Be  Be39  1  0.62833600  0.02447900  0.65340900  1
  Be  Be40  1  0.31876600  0.16519200  0.68155200  1
  Be  Be41  1  0.54390800  0.52121300  0.68155200  1
  Be  Be42  1  0.00070700  0.26597100  0.57291200  1
  Be  Be43  1  0.75921500  0.24962000  0.65340900  1
  Be  Be44  1  0.64468700  0.84713300  0.57291200  1
  Be  Be45  1  0.31583600  0.06800000  0.59090900  1
  Be  Be46  1  0.44671500  0.71197900  0.59090900  1
  Be  Be47  1  0.58742900  0.85269200  0.61905200  1
  Be  Be48  1  0.22877900  0.71918400  0.66355500  1
  Be  Be49  1  0.53834900  0.57847100  0.63541200  1
  Be  Be50  1  0.09790000  0.07520500  0.66355500  1
  Be  Be51  1  0.00626600  0.20871300  0.61905200  1
  Be  Be52  1  0.95718700  0.93449200  0.63541200  1
  Be  Be53  1  0.40319400  0.38050000  0.65340900  1
  Be  Be54  1  0.22584900  0.62199200  0.57291200  1
  Be  Be55  1  0.89992900  0.94005100  0.68155200  1
  Be  Be56  1  0.78540000  0.53756400  0.60105500  1
  Be  Be57  1  0.91627900  0.76270500  0.60105500  1
  Be  Be58  1  0.14142100  0.40668400  0.60105500  1
  Be  Be59  1  0.23140800  0.62755100  0.61905200  1
  Be  Be60  1  0.45392100  0.85006400  0.66355500  1
  Be  Be61  1  0.31320700  0.15963300  0.63541200  1
  Be  Be62  1  0.64730800  0.26859200  0.50223200  1
  Be  Be63  1  0.33480800  0.95609200  0.43973200  1
  Be  Be64  1  0.46569400  0.31212000  0.46590900  1
  Be  Be65  1  0.00333600  0.39947900  0.52840900  1
  Be  Be66  1  0.69376600  0.54019200  0.55655200  1
  Be  Be67  1  0.91890800  0.89621300  0.55655200  1
  Be  Be68  1  0.37570700  0.64097100  0.44791200  1
  Be  Be69  1  0.13421500  0.62462000  0.52840900  1
  Be  Be70  1  0.01968700  0.22213300  0.44791200  1
  Be  Be71  1  0.69083600  0.44300000  0.46590900  1
  Be  Be72  1  0.82171500  0.08697900  0.46590900  1
  Be  Be73  1  0.96242900  0.22769200  0.49405200  1
  Be  Be74  1  0.60377900  0.09418400  0.53855500  1
  Be  Be75  1  0.91334900  0.95347100  0.51041200  1
  Be  Be76  1  0.47290000  0.45020500  0.53855500  1
  Be  Be77  1  0.38126600  0.58371300  0.49405200  1
  Be  Be78  1  0.33218700  0.30949200  0.51041200  1
  Be  Be79  1  0.77819400  0.75550000  0.52840900  1
  Be  Be80  1  0.60084900  0.99699200  0.44791200  1
  Be  Be81  1  0.27492900  0.31505100  0.55655200  1
  Be  Be82  1  0.16040000  0.91256400  0.47605500  1
  Be  Be83  1  0.29127900  0.13770500  0.47605500  1
  Be  Be84  1  0.51642100  0.78168400  0.47605500  1
  Be  Be85  1  0.60640800  0.00255100  0.49405200  1
  Be  Be86  1  0.82892100  0.22506400  0.53855500  1
  Be  Be87  1  0.68820700  0.53463300  0.51041200  1
  Be  Be88  1  0.02230800  0.64359200  0.37723200  1
  Be  Be89  1  0.70980800  0.33109200  0.31473200  1
  Be  Be90  1  0.84069400  0.68712000  0.34090900  1
  Be  Be91  1  0.37833600  0.77447900  0.40340900  1
  Be  Be92  1  0.06876600  0.91519200  0.43155200  1
  Be  Be93  1  0.29390800  0.27121300  0.43155200  1
  Be  Be94  1  0.75070700  0.01597100  0.32291200  1
  Be  Be95  1  0.50921500  0.99962000  0.40340900  1
  Be  Be96  1  0.39468700  0.59713300  0.32291200  1
  Be  Be97  1  0.06583600  0.81800000  0.34090900  1
  Be  Be98  1  0.19671500  0.46197900  0.34090900  1
  Be  Be99  1  0.33742900  0.60269200  0.36905200  1
  Be  Be100  1  0.97877900  0.46918400  0.41355500  1
  Be  Be101  1  0.28834900  0.32847100  0.38541200  1
  Be  Be102  1  0.84790000  0.82520500  0.41355500  1
  Be  Be103  1  0.75626600  0.95871300  0.36905200  1
  Be  Be104  1  0.70718700  0.68449200  0.38541200  1
  Be  Be105  1  0.15319400  0.13050000  0.40340900  1
  Be  Be106  1  0.97584900  0.37199200  0.32291200  1
  Be  Be107  1  0.64992900  0.69005100  0.43155200  1
  Be  Be108  1  0.53540000  0.28756400  0.35105500  1
  Be  Be109  1  0.66627900  0.51270500  0.35105500  1
  Be  Be110  1  0.89142100  0.15668400  0.35105500  1
  Be  Be111  1  0.98140800  0.37755100  0.36905200  1
  Be  Be112  1  0.20392100  0.60006400  0.41355500  1
  Be  Be113  1  0.06320700  0.90963300  0.38541200  1
  Be  Be114  1  0.39730800  0.01859200  0.25223200  1
  Be  Be115  1  0.21569400  0.06212000  0.21590900  1
  Be  Be116  1  0.75333600  0.14947900  0.27840900  1
  Be  Be117  1  0.44376600  0.29019200  0.30655200  1
  Be  Be118  1  0.66890800  0.64621300  0.30655200  1
  Be  Be119  1  0.12570700  0.39097100  0.19791200  1
  Be  Be120  1  0.88421500  0.37462000  0.27840900  1
  Be  Be121  1  0.76968700  0.97213300  0.19791200  1
  Be  Be122  1  0.44083600  0.19300000  0.21590900  1
  Be  Be123  1  0.57171500  0.83697900  0.21590900  1
  Be  Be124  1  0.71242900  0.97769200  0.24405200  1
  Be  Be125  1  0.35377900  0.84418400  0.28855500  1
  Be  Be126  1  0.66334900  0.70347100  0.26041200  1
  Be  Be127  1  0.22290000  0.20020500  0.28855500  1
  Be  Be128  1  0.13126600  0.33371300  0.24405200  1
  Be  Be129  1  0.08218700  0.05949200  0.26041200  1
  Be  Be130  1  0.52819400  0.50550000  0.27840900  1
  Be  Be131  1  0.35084900  0.74699200  0.19791200  1
  Be  Be132  1  0.02492900  0.06505100  0.30655200  1
  Be  Be133  1  0.91040000  0.66256400  0.22605500  1
  Be  Be134  1  0.04127900  0.88770500  0.22605500  1
  Be  Be135  1  0.26642100  0.53168400  0.22605500  1
  Be  Be136  1  0.35640800  0.75255100  0.24405200  1
  Be  Be137  1  0.57892100  0.97506400  0.28855500  1
  Be  Be138  1  0.43820700  0.28463300  0.26041200  1
