# generated using pymatgen
data_Yb17Mg8
_symmetry_space_group_name_H-M   'P 1'
_cell_length_a   6.97474268
_cell_length_b   9.47017927
_cell_length_c   43.76977500
_cell_angle_alpha   87.38801216
_cell_angle_beta   89.35373178
_cell_angle_gamma   83.84723935
_symmetry_Int_Tables_number   1
_chemical_formula_structural   Yb17Mg8
_chemical_formula_sum   'Yb34 Mg16'
_cell_volume   2871.38447292
_cell_formula_units_Z   2
loop_
 _symmetry_equiv_pos_site_id
 _symmetry_equiv_pos_as_xyz
  1  'x, y, z'
loop_
 _atom_site_type_symbol
 _atom_site_label
 _atom_site_symmetry_multiplicity
 _atom_site_fract_x
 _atom_site_fract_y
 _atom_site_fract_z
 _atom_site_occupancy
  Yb  Yb0  1  0.48689000  0.42206600  0.76254600  1
  Yb  Yb1  1  0.28944900  0.75479300  0.81190600  1
  Yb  Yb2  1  0.89677900  0.03031500  0.78507300  1
  Yb  Yb3  1  0.80850600  0.62615900  0.80714200  1
  Yb  Yb4  1  0.77260400  0.49349500  0.69111700  1
  Yb  Yb5  1  0.57516300  0.82622200  0.74047700  1
  Yb  Yb6  1  0.18249300  0.10174400  0.71364500  1
  Yb  Yb7  1  0.09422000  0.69758800  0.73571300  1
  Yb  Yb8  1  0.05831900  0.56492300  0.61968900  1
  Yb  Yb9  1  0.86087800  0.89765100  0.66904900  1
  Yb  Yb10  1  0.46820800  0.17317200  0.64221600  1
  Yb  Yb11  1  0.37993400  0.76901600  0.66428500  1
  Yb  Yb12  1  0.34403300  0.63635200  0.54826000  1
  Yb  Yb13  1  0.14659200  0.96907900  0.59762000  1
  Yb  Yb14  1  0.75392200  0.24460100  0.57078800  1
  Yb  Yb15  1  0.66564900  0.84044500  0.59285600  1
  Yb  Yb16  1  0.62974700  0.70778000  0.47683100  1
  Yb  Yb17  1  0.43230600  0.04050800  0.52619200  1
  Yb  Yb18  1  0.03963600  0.31602900  0.49935900  1
  Yb  Yb19  1  0.95136300  0.91187300  0.52142700  1
  Yb  Yb20  1  0.91546200  0.77920900  0.40540300  1
  Yb  Yb21  1  0.71802000  0.11193600  0.45476300  1
  Yb  Yb22  1  0.32535100  0.38745800  0.42793100  1
  Yb  Yb23  1  0.23707700  0.98330200  0.44999900  1
  Yb  Yb24  1  0.20117600  0.85063700  0.33397400  1
  Yb  Yb25  1  0.00373500  0.18336500  0.38333400  1
  Yb  Yb26  1  0.61106500  0.45888600  0.35650200  1
  Yb  Yb27  1  0.52279200  0.05473000  0.37857000  1
  Yb  Yb28  1  0.48689000  0.92206600  0.26254600  1
  Yb  Yb29  1  0.28944900  0.25479300  0.31190600  1
  Yb  Yb30  1  0.89677900  0.53031500  0.28507300  1
  Yb  Yb31  1  0.80850600  0.12615900  0.30714200  1
  Yb  Yb32  1  0.57516300  0.32622200  0.24047700  1
  Yb  Yb33  1  0.09422000  0.19758800  0.23571300  1
  Mg  Mg34  1  0.38740400  0.09359800  0.78741700  1
  Mg  Mg35  1  0.99626500  0.35878300  0.76020200  1
  Mg  Mg36  1  0.67311800  0.16502600  0.71598900  1
  Mg  Mg37  1  0.28198000  0.43021200  0.68877300  1
  Mg  Mg38  1  0.95883200  0.23645500  0.64456000  1
  Mg  Mg39  1  0.56769400  0.50164000  0.61734500  1
  Mg  Mg40  1  0.24454700  0.30788400  0.57313100  1
  Mg  Mg41  1  0.85340800  0.57306900  0.54591600  1
  Mg  Mg42  1  0.53026100  0.37931200  0.50170300  1
  Mg  Mg43  1  0.13912200  0.64449700  0.47448800  1
  Mg  Mg44  1  0.81597500  0.45074100  0.43027400  1
  Mg  Mg45  1  0.42483700  0.71592600  0.40305900  1
  Mg  Mg46  1  0.10169000  0.52216900  0.35884600  1
  Mg  Mg47  1  0.71055100  0.78735500  0.33163000  1
  Mg  Mg48  1  0.38740400  0.59359800  0.28741700  1
  Mg  Mg49  1  0.99626500  0.85878300  0.26020200  1
