# generated using pymatgen
data_Tb2Mg
_symmetry_space_group_name_H-M   'P 1'
_cell_length_a   3.69476200
_cell_length_b   3.69476200
_cell_length_c   51.37717300
_cell_angle_alpha   90.00000000
_cell_angle_beta   90.00000000
_cell_angle_gamma   90.00000000
_symmetry_Int_Tables_number   1
_chemical_formula_structural   Tb2Mg
_chemical_formula_sum   'Tb8 Mg4'
_cell_volume   701.36346711
_cell_formula_units_Z   4
loop_
 _symmetry_equiv_pos_site_id
 _symmetry_equiv_pos_as_xyz
  1  'x, y, z'
loop_
 _atom_site_type_symbol
 _atom_site_label
 _atom_site_symmetry_multiplicity
 _atom_site_fract_x
 _atom_site_fract_y
 _atom_site_fract_z
 _atom_site_occupancy
  Tb  Tb0  1  0.00000000  0.00000000  0.27252500  1
  Tb  Tb1  1  0.50000000  0.50000000  0.47747500  1
  Tb  Tb2  1  0.50000000  0.50000000  0.39752500  1
  Tb  Tb3  1  0.00000000  0.00000000  0.35247500  1
  Tb  Tb4  1  0.00000000  0.00000000  0.52252500  1
  Tb  Tb5  1  0.50000000  0.50000000  0.72747500  1
  Tb  Tb6  1  0.50000000  0.50000000  0.64752500  1
  Tb  Tb7  1  0.00000000  0.00000000  0.60247500  1
  Mg  Mg8  1  0.00000000  0.00000000  0.43750000  1
  Mg  Mg9  1  0.50000000  0.50000000  0.31250000  1
  Mg  Mg10  1  0.00000000  0.00000000  0.68750000  1
  Mg  Mg11  1  0.50000000  0.50000000  0.56250000  1
