# generated using pymatgen
data_MgGa
_symmetry_space_group_name_H-M   'P 1'
_cell_length_a   8.03816789
_cell_length_b   8.03816859
_cell_length_c   49.15939500
_cell_angle_alpha   88.74412318
_cell_angle_beta   88.74412307
_cell_angle_gamma   83.19111861
_symmetry_Int_Tables_number   1
_chemical_formula_structural   MgGa
_chemical_formula_sum   'Mg42 Ga42'
_cell_volume   3152.53743401
_cell_formula_units_Z   42
loop_
 _symmetry_equiv_pos_site_id
 _symmetry_equiv_pos_as_xyz
  1  'x, y, z'
loop_
 _atom_site_type_symbol
 _atom_site_label
 _atom_site_symmetry_multiplicity
 _atom_site_fract_x
 _atom_site_fract_y
 _atom_site_fract_z
 _atom_site_occupancy
  Mg  Mg0  1  0.77732400  0.63189400  0.71499800  1
  Mg  Mg1  1  0.09345900  0.82921200  0.74094200  1
  Mg  Mg2  1  0.71286800  0.97711500  0.75548500  1
  Mg  Mg3  1  0.04329100  0.18872100  0.78857400  1
  Mg  Mg4  1  0.42018000  0.27475000  0.78642600  1
  Mg  Mg5  1  0.55060300  0.28635600  0.71951500  1
  Mg  Mg6  1  0.17001200  0.43425900  0.73405800  1
  Mg  Mg7  1  0.48614700  0.63157700  0.76000200  1
  Mg  Mg8  1  0.57732400  0.43189400  0.61499800  1
  Mg  Mg9  1  0.89345900  0.62921200  0.64094200  1
  Mg  Mg10  1  0.51286800  0.77711500  0.65548500  1
  Mg  Mg11  1  0.84329100  0.98872100  0.68857400  1
  Mg  Mg12  1  0.22018000  0.07475000  0.68642600  1
  Mg  Mg13  1  0.35060300  0.08635600  0.61951500  1
  Mg  Mg14  1  0.97001200  0.23425900  0.63405800  1
  Mg  Mg15  1  0.28614700  0.43157700  0.66000200  1
  Mg  Mg16  1  0.37732400  0.23189400  0.51499800  1
  Mg  Mg17  1  0.69345900  0.42921200  0.54094200  1
  Mg  Mg18  1  0.31286800  0.57711500  0.55548500  1
  Mg  Mg19  1  0.64329100  0.78872100  0.58857400  1
  Mg  Mg20  1  0.02018000  0.87475000  0.58642600  1
  Mg  Mg21  1  0.15060300  0.88635600  0.51951500  1
  Mg  Mg22  1  0.77001200  0.03425900  0.53405800  1
  Mg  Mg23  1  0.08614700  0.23157700  0.56000200  1
  Mg  Mg24  1  0.17732400  0.03189400  0.41499800  1
  Mg  Mg25  1  0.49345900  0.22921200  0.44094200  1
  Mg  Mg26  1  0.11286800  0.37711500  0.45548500  1
  Mg  Mg27  1  0.44329100  0.58872100  0.48857400  1
  Mg  Mg28  1  0.82018000  0.67475000  0.48642600  1
  Mg  Mg29  1  0.95060300  0.68635600  0.41951500  1
  Mg  Mg30  1  0.57001200  0.83425900  0.43405800  1
  Mg  Mg31  1  0.88614700  0.03157700  0.46000200  1
  Mg  Mg32  1  0.97732400  0.83189400  0.31499800  1
  Mg  Mg33  1  0.29345900  0.02921200  0.34094200  1
  Mg  Mg34  1  0.91286800  0.17711500  0.35548500  1
  Mg  Mg35  1  0.24329100  0.38872100  0.38857400  1
  Mg  Mg36  1  0.62018000  0.47475000  0.38642600  1
  Mg  Mg37  1  0.75060300  0.48635600  0.31951500  1
  Mg  Mg38  1  0.37001200  0.63425900  0.33405800  1
  Mg  Mg39  1  0.68614700  0.83157700  0.36000200  1
  Mg  Mg40  1  0.04329100  0.18872100  0.28857400  1
  Mg  Mg41  1  0.42018000  0.27475000  0.28642600  1
  Ga  Ga42  1  0.40756300  0.62157100  0.70454500  1
  Ga  Ga43  1  0.28991900  0.89243700  0.78871900  1
  Ga  Ga44  1  0.52123000  0.91871200  0.71012000  1
  Ga  Ga45  1  0.30358600  0.08957800  0.74429400  1
  Ga  Ga46  1  0.95988500  0.17389300  0.73070600  1
  Ga  Ga47  1  0.74224000  0.34475900  0.76488000  1
  Ga  Ga48  1  0.17355200  0.57103400  0.78628100  1
  Ga  Ga49  1  0.85590800  0.64190000  0.77045500  1
  Ga  Ga50  1  0.20756300  0.42157100  0.60454500  1
  Ga  Ga51  1  0.08991900  0.69243700  0.68871900  1
  Ga  Ga52  1  0.32123000  0.71871200  0.61012000  1
  Ga  Ga53  1  0.10358600  0.88957800  0.64429400  1
  Ga  Ga54  1  0.75988500  0.97389300  0.63070600  1
  Ga  Ga55  1  0.54224000  0.14475900  0.66488000  1
  Ga  Ga56  1  0.97355200  0.37103400  0.68628100  1
  Ga  Ga57  1  0.65590800  0.44190000  0.67045500  1
  Ga  Ga58  1  0.00756300  0.22157100  0.50454500  1
  Ga  Ga59  1  0.88991900  0.49243700  0.58871900  1
  Ga  Ga60  1  0.12123000  0.51871200  0.51012000  1
  Ga  Ga61  1  0.90358600  0.68957800  0.54429400  1
  Ga  Ga62  1  0.55988500  0.77389300  0.53070600  1
  Ga  Ga63  1  0.34224000  0.94475900  0.56488000  1
  Ga  Ga64  1  0.77355200  0.17103400  0.58628100  1
  Ga  Ga65  1  0.45590800  0.24190000  0.57045500  1
  Ga  Ga66  1  0.80756300  0.02157100  0.40454500  1
  Ga  Ga67  1  0.68991900  0.29243700  0.48871900  1
  Ga  Ga68  1  0.92123000  0.31871200  0.41012000  1
  Ga  Ga69  1  0.70358600  0.48957800  0.44429400  1
  Ga  Ga70  1  0.35988500  0.57389300  0.43070600  1
  Ga  Ga71  1  0.14224000  0.74475900  0.46488000  1
  Ga  Ga72  1  0.57355200  0.97103400  0.48628100  1
  Ga  Ga73  1  0.25590800  0.04190000  0.47045500  1
  Ga  Ga74  1  0.60756300  0.82157100  0.30454500  1
  Ga  Ga75  1  0.48991900  0.09243700  0.38871900  1
  Ga  Ga76  1  0.72123000  0.11871200  0.31012000  1
  Ga  Ga77  1  0.50358600  0.28957800  0.34429400  1
  Ga  Ga78  1  0.15988500  0.37389300  0.33070600  1
  Ga  Ga79  1  0.94224000  0.54475900  0.36488000  1
  Ga  Ga80  1  0.37355200  0.77103400  0.38628100  1
  Ga  Ga81  1  0.05590800  0.84190000  0.37045500  1
  Ga  Ga82  1  0.28991900  0.89243700  0.28871900  1
  Ga  Ga83  1  0.17355200  0.57103400  0.28628100  1
