# generated using pymatgen
data_Mg2B9
_symmetry_space_group_name_H-M   'P 1'
_cell_length_a   5.48489200
_cell_length_b   8.63140273
_cell_length_c   41.64186800
_cell_angle_alpha   88.27871752
_cell_angle_beta   90.00000000
_cell_angle_gamma   90.00000000
_symmetry_Int_Tables_number   1
_chemical_formula_structural   Mg2B9
_chemical_formula_sum   'Mg24 B108'
_cell_volume   1970.53273726
_cell_formula_units_Z   12
loop_
 _symmetry_equiv_pos_site_id
 _symmetry_equiv_pos_as_xyz
  1  'x, y, z'
loop_
 _atom_site_type_symbol
 _atom_site_label
 _atom_site_symmetry_multiplicity
 _atom_site_fract_x
 _atom_site_fract_y
 _atom_site_fract_z
 _atom_site_occupancy
  Mg  Mg0  1  0.45432300  0.32870900  0.28070800  1
  Mg  Mg1  1  0.54567700  0.99193000  0.30111000  1
  Mg  Mg2  1  0.95432300  0.49193000  0.30111000  1
  Mg  Mg3  1  0.04567700  0.82870900  0.28070800  1
  Mg  Mg4  1  0.45432300  0.05598200  0.37161700  1
  Mg  Mg5  1  0.54567700  0.71920300  0.39201900  1
  Mg  Mg6  1  0.95432300  0.21920300  0.39201900  1
  Mg  Mg7  1  0.04567700  0.55598200  0.37161700  1
  Mg  Mg8  1  0.45432300  0.78325500  0.46252600  1
  Mg  Mg9  1  0.54567700  0.44647500  0.48292900  1
  Mg  Mg10  1  0.95432300  0.94647500  0.48292900  1
  Mg  Mg11  1  0.04567700  0.28325500  0.46252600  1
  Mg  Mg12  1  0.45432300  0.51052700  0.55343500  1
  Mg  Mg13  1  0.54567700  0.17374800  0.57383800  1
  Mg  Mg14  1  0.95432300  0.67374800  0.57383800  1
  Mg  Mg15  1  0.04567700  0.01052700  0.55343500  1
  Mg  Mg16  1  0.45432300  0.23780000  0.64434400  1
  Mg  Mg17  1  0.54567700  0.90102100  0.66474700  1
  Mg  Mg18  1  0.95432300  0.40102100  0.66474700  1
  Mg  Mg19  1  0.04567700  0.73780000  0.64434400  1
  Mg  Mg20  1  0.45432300  0.96507300  0.73525300  1
  Mg  Mg21  1  0.54567700  0.62829400  0.75565600  1
  Mg  Mg22  1  0.95432300  0.12829400  0.75565600  1
  Mg  Mg23  1  0.04567700  0.46507300  0.73525300  1
  B  B24  1  0.77761600  0.97663900  0.23669900  1
  B  B25  1  0.22238400  0.61672800  0.25421000  1
  B  B26  1  0.27761600  0.11672800  0.25421000  1
  B  B27  1  0.72238400  0.47663900  0.23669900  1
  B  B28  1  0.94662700  0.12163500  0.25482400  1
  B  B29  1  0.05337300  0.47173100  0.23608600  1
  B  B30  1  0.44662700  0.97173100  0.23608600  1
  B  B31  1  0.55337300  0.62163500  0.25482400  1
  B  B32  1  0.36767100  0.76652500  0.23443400  1
  B  B33  1  0.86767100  0.32684200  0.25647500  1
  B  B34  1  0.63232900  0.82684200  0.25647500  1
  B  B35  1  0.13232900  0.26652500  0.23443400  1
  B  B36  1  0.77761600  0.70391100  0.32760800  1
  B  B37  1  0.22238400  0.34400100  0.34511900  1
  B  B38  1  0.27761600  0.84400100  0.34511900  1
  B  B39  1  0.72238400  0.20391100  0.32760800  1
  B  B40  1  0.94662700  0.84890800  0.34573300  1
  B  B41  1  0.05337300  0.19900400  0.32699500  1
  B  B42  1  0.44662700  0.69900400  0.32699500  1
  B  B43  1  0.55337300  0.34890800  0.34573300  1
  B  B44  1  0.36767100  0.49379700  0.32534300  1
  B  B45  1  0.63232900  0.72211700  0.29138300  1
  B  B46  1  0.86767100  0.05411400  0.34738400  1
  B  B47  1  0.13232900  0.09852200  0.29043500  1
  B  B48  1  0.63232900  0.55411400  0.34738400  1
  B  B49  1  0.36767100  0.59852200  0.29043500  1
  B  B50  1  0.13232900  0.99379700  0.32534300  1
  B  B51  1  0.86767100  0.22211700  0.29138300  1
  B  B52  1  0.77761600  0.43118400  0.41851700  1
  B  B53  1  0.22238400  0.07127300  0.43602800  1
  B  B54  1  0.27761600  0.57127300  0.43602800  1
  B  B55  1  0.72238400  0.93118400  0.41851700  1
  B  B56  1  0.94662700  0.57618000  0.43664200  1
  B  B57  1  0.05337300  0.92627700  0.41790400  1
  B  B58  1  0.44662700  0.42627700  0.41790400  1
  B  B59  1  0.55337300  0.07618000  0.43664200  1
  B  B60  1  0.36767100  0.22107000  0.41625200  1
  B  B61  1  0.63232900  0.44939000  0.38229200  1
  B  B62  1  0.86767100  0.78138700  0.43829300  1
  B  B63  1  0.13232900  0.82579500  0.38134400  1
  B  B64  1  0.63232900  0.28138700  0.43829300  1
  B  B65  1  0.36767100  0.32579500  0.38134400  1
  B  B66  1  0.13232900  0.72107000  0.41625200  1
  B  B67  1  0.86767100  0.94939000  0.38229200  1
  B  B68  1  0.77761600  0.15845700  0.50942600  1
  B  B69  1  0.22238400  0.79854600  0.52693700  1
  B  B70  1  0.27761600  0.29854600  0.52693700  1
  B  B71  1  0.72238400  0.65845700  0.50942600  1
  B  B72  1  0.94662700  0.30345300  0.52755100  1
  B  B73  1  0.05337300  0.65355000  0.50881300  1
  B  B74  1  0.44662700  0.15355000  0.50881300  1
  B  B75  1  0.55337300  0.80345300  0.52755100  1
  B  B76  1  0.36767100  0.94834300  0.50716100  1
  B  B77  1  0.63232900  0.17666300  0.47320100  1
  B  B78  1  0.86767100  0.50866000  0.52920200  1
  B  B79  1  0.13232900  0.55306700  0.47225300  1
  B  B80  1  0.63232900  0.00866000  0.52920200  1
  B  B81  1  0.36767100  0.05306700  0.47225300  1
  B  B82  1  0.13232900  0.44834300  0.50716100  1
  B  B83  1  0.86767100  0.67666300  0.47320100  1
  B  B84  1  0.77761600  0.88573000  0.60033500  1
  B  B85  1  0.22238400  0.52581900  0.61784600  1
  B  B86  1  0.27761600  0.02581900  0.61784600  1
  B  B87  1  0.72238400  0.38573000  0.60033500  1
  B  B88  1  0.94662700  0.03072600  0.61846000  1
  B  B89  1  0.05337300  0.38082200  0.59972200  1
  B  B90  1  0.44662700  0.88082200  0.59972200  1
  B  B91  1  0.55337300  0.53072600  0.61846000  1
  B  B92  1  0.36767100  0.67561600  0.59807000  1
  B  B93  1  0.63232900  0.90393500  0.56411000  1
  B  B94  1  0.86767100  0.23593300  0.62011100  1
  B  B95  1  0.13232900  0.28034000  0.56316200  1
  B  B96  1  0.63232900  0.73593300  0.62011100  1
  B  B97  1  0.36767100  0.78034000  0.56316200  1
  B  B98  1  0.13232900  0.17561600  0.59807000  1
  B  B99  1  0.86767100  0.40393500  0.56411000  1
  B  B100  1  0.77761600  0.61300200  0.69124400  1
  B  B101  1  0.22238400  0.25309100  0.70875600  1
  B  B102  1  0.27761600  0.75309100  0.70875600  1
  B  B103  1  0.72238400  0.11300200  0.69124400  1
  B  B104  1  0.94662700  0.75799900  0.70936900  1
  B  B105  1  0.05337300  0.10809500  0.69063100  1
  B  B106  1  0.44662700  0.60809500  0.69063100  1
  B  B107  1  0.55337300  0.25799900  0.70936900  1
  B  B108  1  0.36767100  0.40288800  0.68898000  1
  B  B109  1  0.63232900  0.63120800  0.65502000  1
  B  B110  1  0.86767100  0.96320500  0.71102000  1
  B  B111  1  0.13232900  0.00761300  0.65407100  1
  B  B112  1  0.63232900  0.46320500  0.71102000  1
  B  B113  1  0.36767100  0.50761300  0.65407100  1
  B  B114  1  0.13232900  0.90288800  0.68898000  1
  B  B115  1  0.86767100  0.13120800  0.65502000  1
  B  B116  1  0.77761600  0.34027500  0.78215400  1
  B  B117  1  0.22238400  0.98036400  0.79966500  1
  B  B118  1  0.27761600  0.48036400  0.79966500  1
  B  B119  1  0.72238400  0.84027500  0.78215400  1
  B  B120  1  0.94662700  0.48527100  0.80027800  1
  B  B121  1  0.05337300  0.83536800  0.78154000  1
  B  B122  1  0.44662700  0.33536800  0.78154000  1
  B  B123  1  0.55337300  0.98527100  0.80027800  1
  B  B124  1  0.36767100  0.13016100  0.77988900  1
  B  B125  1  0.63232900  0.35848100  0.74592900  1
  B  B126  1  0.86767100  0.69047800  0.80193000  1
  B  B127  1  0.13232900  0.73488600  0.74498000  1
  B  B128  1  0.63232900  0.19047800  0.80193000  1
  B  B129  1  0.36767100  0.23488600  0.74498000  1
  B  B130  1  0.13232900  0.63016100  0.77988900  1
  B  B131  1  0.86767100  0.85848100  0.74592900  1
