# generated using pymatgen
data_Mg12Zn23
_symmetry_space_group_name_H-M   'P 1'
_cell_length_a   5.07402260
_cell_length_b   13.26606241
_cell_length_c   57.00757700
_cell_angle_alpha   92.18610401
_cell_angle_beta   87.66012493
_cell_angle_gamma   100.62858194
_symmetry_Int_Tables_number   1
_chemical_formula_structural   Mg12Zn23
_chemical_formula_sum   'Mg24 Zn46'
_cell_volume   3766.49990850
_cell_formula_units_Z   2
loop_
 _symmetry_equiv_pos_site_id
 _symmetry_equiv_pos_as_xyz
  1  'x, y, z'
loop_
 _atom_site_type_symbol
 _atom_site_label
 _atom_site_symmetry_multiplicity
 _atom_site_fract_x
 _atom_site_fract_y
 _atom_site_fract_z
 _atom_site_occupancy
  Mg  Mg0  1  0.24461700  0.61782100  0.38404600  1
  Mg  Mg1  1  0.45411700  0.98464800  0.33744700  1
  Mg  Mg2  1  0.55604100  0.36547000  0.49717000  1
  Mg  Mg3  1  0.79451000  0.73853900  0.39819500  1
  Mg  Mg4  1  0.92714800  0.91255100  0.30963000  1
  Mg  Mg5  1  0.12002700  0.40850800  0.41610400  1
  Mg  Mg6  1  0.81053600  0.66816900  0.30322700  1
  Mg  Mg7  1  0.89303000  0.94900200  0.41998600  1
  Mg  Mg8  1  0.24722600  0.56808800  0.32813700  1
  Mg  Mg9  1  0.01039300  0.02499000  0.25855200  1
  Mg  Mg10  1  0.13150000  0.32207000  0.32101200  1
  Mg  Mg11  1  0.44031500  0.11945300  0.49004500  1
  Mg  Mg12  1  0.37574800  0.88115100  0.38531900  1
  Mg  Mg13  1  0.12207900  0.46257400  0.47188400  1
  Mg  Mg14  1  0.56546200  0.22496600  0.34629800  1
  Mg  Mg15  1  0.12700400  0.26937100  0.26495500  1
  Mg  Mg16  1  0.44292400  0.06972000  0.43413600  1
  Mg  Mg17  1  0.56751300  0.27903200  0.40207800  1
  Mg  Mg18  1  0.23342400  0.70289200  0.48073500  1
  Mg  Mg19  1  0.31179300  0.80638900  0.43286300  1
  Mg  Mg20  1  0.67714800  0.66255100  0.55963000  1
  Mg  Mg21  1  0.56053600  0.41816900  0.55322700  1
  Mg  Mg22  1  0.76039300  0.77499000  0.50855200  1
  Mg  Mg23  1  0.87700400  0.01937100  0.51495500  1
  Zn  Zn24  1  0.37440200  0.79490300  0.30716300  1
  Zn  Zn25  1  0.90803200  0.92518100  0.36343800  1
  Zn  Zn26  1  0.68133900  0.44164600  0.32480400  1
  Zn  Zn27  1  0.10466600  0.92642400  0.47116900  1
  Zn  Zn28  1  0.79370500  0.12814400  0.30328200  1
  Zn  Zn29  1  0.08878600  0.76551400  0.34670800  1
  Zn  Zn30  1  0.96877000  0.46877000  0.28409100  1
  Zn  Zn31  1  0.56313900  0.14263700  0.26101800  1
  Zn  Zn32  1  0.06472100  0.25301100  0.37481700  1
  Zn  Zn33  1  0.65008600  0.80904700  0.26487200  1
  Zn  Zn34  1  0.90649700  0.41852500  0.36521000  1
  Zn  Zn35  1  0.68325300  0.51178400  0.39989000  1
  Zn  Zn36  1  0.30822600  0.64011200  0.27569100  1
  Zn  Zn37  1  0.67576500  0.58568300  0.47599700  1
  Zn  Zn38  1  0.77950900  0.76236000  0.45474400  1
  Zn  Zn39  1  0.62281900  0.43452900  0.44336400  1
  Zn  Zn40  1  0.45385200  0.60715300  0.43400500  1
  Zn  Zn41  1  0.28745500  0.12849300  0.30331000  1
  Zn  Zn42  1  0.59875500  0.92202700  0.47147400  1
  Zn  Zn43  1  0.62931500  0.29742900  0.29249100  1
  Zn  Zn44  1  0.23368900  0.08038800  0.38417700  1
  Zn  Zn45  1  0.14383600  0.80939600  0.26490000  1
  Zn  Zn46  1  0.46877000  0.46877000  0.28409100  1
  Zn  Zn47  1  0.75174900  0.59476100  0.35522500  1
  Zn  Zn48  1  0.40155000  0.41688800  0.36534100  1
  Zn  Zn49  1  0.96902600  0.61024900  0.43355100  1
  Zn  Zn50  1  0.93579200  0.09278000  0.46295600  1
  Zn  Zn51  1  0.71851400  0.07729200  0.38463100  1
  Zn  Zn52  1  0.01177500  0.10185700  0.34218500  1
  Zn  Zn53  1  0.28599000  0.27065200  0.45284000  1
  Zn  Zn54  1  0.58287500  0.76111600  0.34701300  1
  Zn  Zn55  1  0.46877000  0.96877000  0.28409100  1
  Zn  Zn56  1  0.78104400  0.26901600  0.45297200  1
  Zn  Zn57  1  0.00428800  0.17575700  0.41829200  1
  Zn  Zn58  1  0.00620200  0.24589500  0.49337800  1
  Zn  Zn59  1  0.12440200  0.54490300  0.55716300  1
  Zn  Zn60  1  0.54370500  0.87814400  0.55328200  1
  Zn  Zn61  1  0.71877000  0.21877000  0.53409100  1
  Zn  Zn62  1  0.31313900  0.89263700  0.51101800  1
  Zn  Zn63  1  0.40008600  0.55904700  0.51487200  1
  Zn  Zn64  1  0.05822600  0.39011200  0.52569100  1
  Zn  Zn65  1  0.03745500  0.87849300  0.55331000  1
  Zn  Zn66  1  0.37931500  0.04742900  0.54249100  1
  Zn  Zn67  1  0.89383600  0.55939600  0.51490000  1
  Zn  Zn68  1  0.21877000  0.21877000  0.53409100  1
  Zn  Zn69  1  0.21877000  0.71877000  0.53409100  1
