# generated using pymatgen
data_Mg55Zn98
_symmetry_space_group_name_H-M   'P 1'
_cell_length_a   13.26606209
_cell_length_b   14.70723619
_cell_length_c   50.02254400
_cell_angle_alpha   94.04592358
_cell_angle_beta   85.51984715
_cell_angle_gamma   104.27395804
_symmetry_Int_Tables_number   1
_chemical_formula_structural   Mg55Zn98
_chemical_formula_sum   'Mg110 Zn196'
_cell_volume   9416.24948960
_cell_formula_units_Z   2
loop_
 _symmetry_equiv_pos_site_id
 _symmetry_equiv_pos_as_xyz
  1  'x, y, z'
loop_
 _atom_site_type_symbol
 _atom_site_label
 _atom_site_symmetry_multiplicity
 _atom_site_fract_x
 _atom_site_fract_y
 _atom_site_fract_z
 _atom_site_occupancy
  Mg  Mg0  1  0.56080300  0.35231700  0.25185300  1
  Mg  Mg1  1  0.82094700  0.95641800  0.26580300  1
  Mg  Mg2  1  0.90198600  0.60215500  0.27021000  1
  Mg  Mg3  1  0.47448300  0.02805300  0.30014500  1
  Mg  Mg4  1  0.66350400  0.57654400  0.25790800  1
  Mg  Mg5  1  0.04117000  0.04358200  0.27783400  1
  Mg  Mg6  1  0.96013100  0.39784500  0.27342700  1
  Mg  Mg7  1  0.30131400  0.64768300  0.29178300  1
  Mg  Mg8  1  0.19861400  0.42345600  0.28572800  1
  Mg  Mg9  1  0.38763400  0.97194700  0.24349100  1
  Mg  Mg10  1  0.64248400  0.89982000  0.30939800  1
  Mg  Mg11  1  0.94642300  0.71342500  0.32568800  1
  Mg  Mg12  1  0.46080300  0.35231700  0.35185300  1
  Mg  Mg13  1  0.72094700  0.95641800  0.36580300  1
  Mg  Mg14  1  0.80198600  0.60215500  0.37021000  1
  Mg  Mg15  1  0.37448300  0.02805300  0.40014500  1
  Mg  Mg16  1  0.56350400  0.57654400  0.35790800  1
  Mg  Mg17  1  0.94117000  0.04358200  0.37783400  1
  Mg  Mg18  1  0.54217200  0.67618400  0.30406800  1
  Mg  Mg19  1  0.86013100  0.39784500  0.37342700  1
  Mg  Mg20  1  0.20131400  0.64768300  0.39178300  1
  Mg  Mg21  1  0.21994500  0.32381600  0.33956800  1
  Mg  Mg22  1  0.89384700  0.90491200  0.32263900  1
  Mg  Mg23  1  0.57854500  0.25117100  0.30592800  1
  Mg  Mg24  1  0.18357200  0.74882900  0.33770800  1
  Mg  Mg25  1  0.09861400  0.42345600  0.38572800  1
  Mg  Mg26  1  0.11963300  0.10018000  0.33423800  1
  Mg  Mg27  1  0.28763400  0.97194700  0.34349100  1
  Mg  Mg28  1  0.81569500  0.28657500  0.31794800  1
  Mg  Mg29  1  0.86827000  0.09508800  0.32099800  1
  Mg  Mg30  1  0.54248400  0.89982000  0.40939800  1
  Mg  Mg31  1  0.84642300  0.71342500  0.42568800  1
  Mg  Mg32  1  0.36080300  0.35231700  0.45185300  1
  Mg  Mg33  1  0.62094700  0.95641800  0.46580300  1
  Mg  Mg34  1  0.70198600  0.60215500  0.47021000  1
  Mg  Mg35  1  0.27448300  0.02805300  0.50014500  1
  Mg  Mg36  1  0.46350400  0.57654400  0.45790800  1
  Mg  Mg37  1  0.84117000  0.04358200  0.47783400  1
  Mg  Mg38  1  0.44217200  0.67618400  0.40406800  1
  Mg  Mg39  1  0.76013100  0.39784500  0.47342700  1
  Mg  Mg40  1  0.10131400  0.64768300  0.49178300  1
  Mg  Mg41  1  0.11994500  0.32381600  0.43956800  1
  Mg  Mg42  1  0.79384700  0.90491200  0.42263900  1
  Mg  Mg43  1  0.47854500  0.25117100  0.40592800  1
  Mg  Mg44  1  0.08357200  0.74882900  0.43770800  1
  Mg  Mg45  1  0.99861400  0.42345600  0.48572800  1
  Mg  Mg46  1  0.01963300  0.10018000  0.43423800  1
  Mg  Mg47  1  0.18763400  0.97194700  0.44349100  1
  Mg  Mg48  1  0.71569500  0.28657500  0.41794800  1
  Mg  Mg49  1  0.76827000  0.09508800  0.42099800  1
  Mg  Mg50  1  0.44248400  0.89982000  0.50939800  1
  Mg  Mg51  1  0.74642300  0.71342500  0.52568800  1
  Mg  Mg52  1  0.26080300  0.35231700  0.55185300  1
  Mg  Mg53  1  0.52094700  0.95641800  0.56580300  1
  Mg  Mg54  1  0.60198600  0.60215500  0.57021000  1
  Mg  Mg55  1  0.17448300  0.02805300  0.60014500  1
  Mg  Mg56  1  0.36350400  0.57654400  0.55790800  1
  Mg  Mg57  1  0.74117000  0.04358200  0.57783400  1
  Mg  Mg58  1  0.34217200  0.67618400  0.50406800  1
  Mg  Mg59  1  0.66013100  0.39784500  0.57342700  1
  Mg  Mg60  1  0.00131400  0.64768300  0.59178300  1
  Mg  Mg61  1  0.01994500  0.32381600  0.53956800  1
  Mg  Mg62  1  0.69384700  0.90491200  0.52263900  1
  Mg  Mg63  1  0.37854500  0.25117100  0.50592800  1
  Mg  Mg64  1  0.98357200  0.74882900  0.53770800  1
  Mg  Mg65  1  0.89861400  0.42345600  0.58572800  1
  Mg  Mg66  1  0.91963300  0.10018000  0.53423800  1
  Mg  Mg67  1  0.08763400  0.97194700  0.54349100  1
  Mg  Mg68  1  0.61569500  0.28657500  0.51794800  1
  Mg  Mg69  1  0.66827000  0.09508800  0.52099800  1
  Mg  Mg70  1  0.34248400  0.89982000  0.60939800  1
  Mg  Mg71  1  0.64642300  0.71342500  0.62568800  1
  Mg  Mg72  1  0.16080300  0.35231700  0.65185300  1
  Mg  Mg73  1  0.42094700  0.95641800  0.66580300  1
  Mg  Mg74  1  0.50198600  0.60215500  0.67021000  1
  Mg  Mg75  1  0.07448300  0.02805300  0.70014500  1
  Mg  Mg76  1  0.26350400  0.57654400  0.65790800  1
  Mg  Mg77  1  0.64117000  0.04358200  0.67783400  1
  Mg  Mg78  1  0.24217200  0.67618400  0.60406800  1
  Mg  Mg79  1  0.56013100  0.39784500  0.67342700  1
  Mg  Mg80  1  0.90131400  0.64768300  0.69178300  1
  Mg  Mg81  1  0.91994500  0.32381600  0.63956800  1
  Mg  Mg82  1  0.59384700  0.90491200  0.62263900  1
  Mg  Mg83  1  0.27854500  0.25117100  0.60592800  1
  Mg  Mg84  1  0.88357200  0.74882900  0.63770800  1
  Mg  Mg85  1  0.79861400  0.42345600  0.68572800  1
  Mg  Mg86  1  0.81963300  0.10018000  0.63423800  1
  Mg  Mg87  1  0.98763400  0.97194700  0.64349100  1
  Mg  Mg88  1  0.51569500  0.28657500  0.61794800  1
  Mg  Mg89  1  0.56827000  0.09508800  0.62099800  1
  Mg  Mg90  1  0.24248400  0.89982000  0.70939800  1
  Mg  Mg91  1  0.54642300  0.71342500  0.72568800  1
  Mg  Mg92  1  0.06080300  0.35231700  0.75185300  1
  Mg  Mg93  1  0.32094700  0.95641800  0.76580300  1
  Mg  Mg94  1  0.40198600  0.60215500  0.77021000  1
  Mg  Mg95  1  0.97448300  0.02805300  0.80014500  1
  Mg  Mg96  1  0.16350400  0.57654400  0.75790800  1
  Mg  Mg97  1  0.54117000  0.04358200  0.77783400  1
  Mg  Mg98  1  0.14217200  0.67618400  0.70406800  1
  Mg  Mg99  1  0.46013100  0.39784500  0.77342700  1
  Mg  Mg100  1  0.80131400  0.64768300  0.79178300  1
  Mg  Mg101  1  0.81994500  0.32381600  0.73956800  1
  Mg  Mg102  1  0.49384700  0.90491200  0.72263900  1
  Mg  Mg103  1  0.17854500  0.25117100  0.70592800  1
  Mg  Mg104  1  0.78357200  0.74882900  0.73770800  1
  Mg  Mg105  1  0.69861400  0.42345600  0.78572800  1
  Mg  Mg106  1  0.71963300  0.10018000  0.73423800  1
  Mg  Mg107  1  0.88763400  0.97194700  0.74349100  1
  Mg  Mg108  1  0.41569500  0.28657500  0.71794800  1
  Mg  Mg109  1  0.46827000  0.09508800  0.72099800  1
  Zn  Zn110  1  0.96495500  0.81738700  0.27367900  1
  Zn  Zn111  1  0.46931900  0.66285200  0.24714600  1
  Zn  Zn112  1  0.12521100  0.57676400  0.25623100  1
  Zn  Zn113  1  0.77215600  0.75046900  0.29008100  1
  Zn  Zn114  1  0.43105900  0.50000000  0.27181800  1
  Zn  Zn115  1  0.28735800  0.86290600  0.29048600  1
  Zn  Zn116  1  0.46004800  0.82447600  0.27370300  1
  Zn  Zn117  1  0.60684300  0.96319600  0.25484600  1
  Zn  Zn118  1  0.74998700  0.26762300  0.26170800  1
  Zn  Zn119  1  0.89716200  0.18261300  0.26995700  1
  Zn  Zn120  1  0.57475900  0.13709400  0.25315000  1
  Zn  Zn121  1  0.08996100  0.24953100  0.25355500  1
  Zn  Zn122  1  0.73690600  0.42323600  0.28740600  1
  Zn  Zn123  1  0.64277200  0.78453800  0.25722900  1
  Zn  Zn124  1  0.70702500  0.09783900  0.28679000  1
  Zn  Zn125  1  0.21934500  0.21546200  0.28640700  1
  Zn  Zn126  1  0.15509200  0.90216100  0.25684700  1
  Zn  Zn127  1  0.11213000  0.73237700  0.28192800  1
  Zn  Zn128  1  0.40207000  0.17552400  0.26993400  1
  Zn  Zn129  1  0.25527400  0.03680400  0.28879000  1
  Zn  Zn130  1  0.39279800  0.33714800  0.29649000  1
  Zn  Zn131  1  0.73739400  0.59229000  0.31468900  1
  Zn  Zn132  1  0.86495500  0.81738700  0.37367900  1
  Zn  Zn133  1  0.36931900  0.66285200  0.34714600  1
  Zn  Zn134  1  0.04349300  0.24831100  0.30411600  1
  Zn  Zn135  1  0.02521100  0.57676400  0.35623100  1
  Zn  Zn136  1  0.67215600  0.75046900  0.39008100  1
  Zn  Zn137  1  0.33105900  0.50000000  0.37181800  1
  Zn  Zn138  1  0.02472400  0.40771000  0.32894800  1
  Zn  Zn139  1  0.18735800  0.86290600  0.39048600  1
  Zn  Zn140  1  0.68590700  0.42312300  0.33802800  1
  Zn  Zn141  1  0.36004800  0.82447600  0.37370300  1
  Zn  Zn142  1  0.50684300  0.96319600  0.35484600  1
  Zn  Zn143  1  0.56089500  0.46639900  0.30492400  1
  Zn  Zn144  1  0.64998700  0.26762300  0.36170800  1
  Zn  Zn145  1  0.79716200  0.18261300  0.36995700  1
  Zn  Zn146  1  0.47475900  0.13709400  0.35315000  1
  Zn  Zn147  1  0.65585600  0.09965700  0.33531800  1
  Zn  Zn148  1  0.07621100  0.57687700  0.30560900  1
  Zn  Zn149  1  0.98996100  0.24953100  0.35355500  1
  Zn  Zn150  1  0.20122300  0.53360100  0.33871300  1
  Zn  Zn151  1  0.10626200  0.90034300  0.30831900  1
  Zn  Zn152  1  0.63690600  0.42323600  0.38740600  1
  Zn  Zn153  1  0.38105900  0.50000000  0.32181800  1
  Zn  Zn154  1  0.54277200  0.78453800  0.35722900  1
  Zn  Zn155  1  0.40902400  0.82500200  0.32322100  1
  Zn  Zn156  1  0.60702500  0.09783900  0.38679000  1
  Zn  Zn157  1  0.11934500  0.21546200  0.38640700  1
  Zn  Zn158  1  0.05509200  0.90216100  0.35684700  1
  Zn  Zn159  1  0.01213000  0.73237700  0.38192800  1
  Zn  Zn160  1  0.35309300  0.17499800  0.32041500  1
  Zn  Zn161  1  0.71862400  0.75168900  0.33952100  1
  Zn  Zn162  1  0.88105900  0.50000000  0.32181800  1
  Zn  Zn163  1  0.30207000  0.17552400  0.36993400  1
  Zn  Zn164  1  0.15527400  0.03680400  0.38879000  1
  Zn  Zn165  1  0.29279800  0.33714800  0.39649000  1
  Zn  Zn166  1  0.63739400  0.59229000  0.41468900  1
  Zn  Zn167  1  0.76495500  0.81738700  0.47367900  1
  Zn  Zn168  1  0.26931900  0.66285200  0.44714600  1
  Zn  Zn169  1  0.94349300  0.24831100  0.40411600  1
  Zn  Zn170  1  0.92521100  0.57676400  0.45623100  1
  Zn  Zn171  1  0.57215600  0.75046900  0.49008100  1
  Zn  Zn172  1  0.23105900  0.50000000  0.47181800  1
  Zn  Zn173  1  0.92472400  0.40771000  0.42894800  1
  Zn  Zn174  1  0.08735800  0.86290600  0.49048600  1
  Zn  Zn175  1  0.58590700  0.42312300  0.43802800  1
  Zn  Zn176  1  0.26004800  0.82447600  0.47370300  1
  Zn  Zn177  1  0.40684300  0.96319600  0.45484600  1
  Zn  Zn178  1  0.46089500  0.46639900  0.40492400  1
  Zn  Zn179  1  0.54998700  0.26762300  0.46170800  1
  Zn  Zn180  1  0.69716200  0.18261300  0.46995700  1
  Zn  Zn181  1  0.37475900  0.13709400  0.45315000  1
  Zn  Zn182  1  0.55585600  0.09965700  0.43531800  1
  Zn  Zn183  1  0.97621100  0.57687700  0.40560900  1
  Zn  Zn184  1  0.88996100  0.24953100  0.45355500  1
  Zn  Zn185  1  0.10122300  0.53360100  0.43871300  1
  Zn  Zn186  1  0.00626200  0.90034300  0.40831900  1
  Zn  Zn187  1  0.53690600  0.42323600  0.48740600  1
  Zn  Zn188  1  0.28105900  0.50000000  0.42181800  1
  Zn  Zn189  1  0.44277200  0.78453800  0.45722900  1
  Zn  Zn190  1  0.30902400  0.82500200  0.42322100  1
  Zn  Zn191  1  0.50702500  0.09783900  0.48679000  1
  Zn  Zn192  1  0.01934500  0.21546200  0.48640700  1
  Zn  Zn193  1  0.95509200  0.90216100  0.45684700  1
  Zn  Zn194  1  0.91213000  0.73237700  0.48192800  1
  Zn  Zn195  1  0.25309300  0.17499800  0.42041500  1
  Zn  Zn196  1  0.61862400  0.75168900  0.43952100  1
  Zn  Zn197  1  0.78105900  0.50000000  0.42181800  1
  Zn  Zn198  1  0.20207000  0.17552400  0.46993400  1
  Zn  Zn199  1  0.05527400  0.03680400  0.48879000  1
  Zn  Zn200  1  0.19279800  0.33714800  0.49649000  1
  Zn  Zn201  1  0.53739400  0.59229000  0.51468900  1
  Zn  Zn202  1  0.66495500  0.81738700  0.57367900  1
  Zn  Zn203  1  0.16931900  0.66285200  0.54714600  1
  Zn  Zn204  1  0.84349300  0.24831100  0.50411600  1
  Zn  Zn205  1  0.82521100  0.57676400  0.55623100  1
  Zn  Zn206  1  0.47215600  0.75046900  0.59008100  1
  Zn  Zn207  1  0.13105900  0.50000000  0.57181800  1
  Zn  Zn208  1  0.82472400  0.40771000  0.52894800  1
  Zn  Zn209  1  0.98735800  0.86290600  0.59048600  1
  Zn  Zn210  1  0.48590700  0.42312300  0.53802800  1
  Zn  Zn211  1  0.16004800  0.82447600  0.57370300  1
  Zn  Zn212  1  0.30684300  0.96319600  0.55484600  1
  Zn  Zn213  1  0.36089500  0.46639900  0.50492400  1
  Zn  Zn214  1  0.44998700  0.26762300  0.56170800  1
  Zn  Zn215  1  0.59716200  0.18261300  0.56995700  1
  Zn  Zn216  1  0.27475900  0.13709400  0.55315000  1
  Zn  Zn217  1  0.45585600  0.09965700  0.53531800  1
  Zn  Zn218  1  0.87621100  0.57687700  0.50560900  1
  Zn  Zn219  1  0.78996100  0.24953100  0.55355500  1
  Zn  Zn220  1  0.00122300  0.53360100  0.53871300  1
  Zn  Zn221  1  0.90626200  0.90034300  0.50831900  1
  Zn  Zn222  1  0.43690600  0.42323600  0.58740600  1
  Zn  Zn223  1  0.18105900  0.50000000  0.52181800  1
  Zn  Zn224  1  0.34277200  0.78453800  0.55722900  1
  Zn  Zn225  1  0.20902400  0.82500200  0.52322100  1
  Zn  Zn226  1  0.40702500  0.09783900  0.58679000  1
  Zn  Zn227  1  0.91934500  0.21546200  0.58640700  1
  Zn  Zn228  1  0.85509200  0.90216100  0.55684700  1
  Zn  Zn229  1  0.81213000  0.73237700  0.58192800  1
  Zn  Zn230  1  0.15309300  0.17499800  0.52041500  1
  Zn  Zn231  1  0.51862400  0.75168900  0.53952100  1
  Zn  Zn232  1  0.68105900  0.50000000  0.52181800  1
  Zn  Zn233  1  0.10207000  0.17552400  0.56993400  1
  Zn  Zn234  1  0.95527400  0.03680400  0.58879000  1
  Zn  Zn235  1  0.09279800  0.33714800  0.59649000  1
  Zn  Zn236  1  0.43739400  0.59229000  0.61468900  1
  Zn  Zn237  1  0.56495500  0.81738700  0.67367900  1
  Zn  Zn238  1  0.06931900  0.66285200  0.64714600  1
  Zn  Zn239  1  0.74349300  0.24831100  0.60411600  1
  Zn  Zn240  1  0.72521100  0.57676400  0.65623100  1
  Zn  Zn241  1  0.37215600  0.75046900  0.69008100  1
  Zn  Zn242  1  0.03105900  0.50000000  0.67181800  1
  Zn  Zn243  1  0.72472400  0.40771000  0.62894800  1
  Zn  Zn244  1  0.88735800  0.86290600  0.69048600  1
  Zn  Zn245  1  0.38590700  0.42312300  0.63802800  1
  Zn  Zn246  1  0.06004800  0.82447600  0.67370300  1
  Zn  Zn247  1  0.20684300  0.96319600  0.65484600  1
  Zn  Zn248  1  0.26089500  0.46639900  0.60492400  1
  Zn  Zn249  1  0.34998700  0.26762300  0.66170800  1
  Zn  Zn250  1  0.49716200  0.18261300  0.66995700  1
  Zn  Zn251  1  0.17475900  0.13709400  0.65315000  1
  Zn  Zn252  1  0.35585600  0.09965700  0.63531800  1
  Zn  Zn253  1  0.77621100  0.57687700  0.60560900  1
  Zn  Zn254  1  0.68996100  0.24953100  0.65355500  1
  Zn  Zn255  1  0.90122300  0.53360100  0.63871300  1
  Zn  Zn256  1  0.80626200  0.90034300  0.60831900  1
  Zn  Zn257  1  0.33690600  0.42323600  0.68740600  1
  Zn  Zn258  1  0.08105900  0.50000000  0.62181800  1
  Zn  Zn259  1  0.24277200  0.78453800  0.65722900  1
  Zn  Zn260  1  0.10902400  0.82500200  0.62322100  1
  Zn  Zn261  1  0.30702500  0.09783900  0.68679000  1
  Zn  Zn262  1  0.81934500  0.21546200  0.68640700  1
  Zn  Zn263  1  0.75509200  0.90216100  0.65684700  1
  Zn  Zn264  1  0.71213000  0.73237700  0.68192800  1
  Zn  Zn265  1  0.05309300  0.17499800  0.62041500  1
  Zn  Zn266  1  0.41862400  0.75168900  0.63952100  1
  Zn  Zn267  1  0.58105900  0.50000000  0.62181800  1
  Zn  Zn268  1  0.00207000  0.17552400  0.66993400  1
  Zn  Zn269  1  0.85527400  0.03680400  0.68879000  1
  Zn  Zn270  1  0.99279800  0.33714800  0.69649000  1
  Zn  Zn271  1  0.33739400  0.59229000  0.71468900  1
  Zn  Zn272  1  0.46495500  0.81738700  0.77367900  1
  Zn  Zn273  1  0.96931900  0.66285200  0.74714600  1
  Zn  Zn274  1  0.64349300  0.24831100  0.70411600  1
  Zn  Zn275  1  0.62521100  0.57676400  0.75623100  1
  Zn  Zn276  1  0.27215600  0.75046900  0.79008100  1
  Zn  Zn277  1  0.93105900  0.50000000  0.77181800  1
  Zn  Zn278  1  0.62472400  0.40771000  0.72894800  1
  Zn  Zn279  1  0.78735800  0.86290600  0.79048600  1
  Zn  Zn280  1  0.28590700  0.42312300  0.73802800  1
  Zn  Zn281  1  0.96004800  0.82447600  0.77370300  1
  Zn  Zn282  1  0.10684300  0.96319600  0.75484600  1
  Zn  Zn283  1  0.16089500  0.46639900  0.70492400  1
  Zn  Zn284  1  0.24998700  0.26762300  0.76170800  1
  Zn  Zn285  1  0.39716200  0.18261300  0.76995700  1
  Zn  Zn286  1  0.07475900  0.13709400  0.75315000  1
  Zn  Zn287  1  0.25585600  0.09965700  0.73531800  1
  Zn  Zn288  1  0.67621100  0.57687700  0.70560900  1
  Zn  Zn289  1  0.58996100  0.24953100  0.75355500  1
  Zn  Zn290  1  0.80122300  0.53360100  0.73871300  1
  Zn  Zn291  1  0.70626200  0.90034300  0.70831900  1
  Zn  Zn292  1  0.23690600  0.42323600  0.78740600  1
  Zn  Zn293  1  0.98105900  0.50000000  0.72181800  1
  Zn  Zn294  1  0.14277200  0.78453800  0.75722900  1
  Zn  Zn295  1  0.00902400  0.82500200  0.72322100  1
  Zn  Zn296  1  0.20702500  0.09783900  0.78679000  1
  Zn  Zn297  1  0.71934500  0.21546200  0.78640700  1
  Zn  Zn298  1  0.65509200  0.90216100  0.75684700  1
  Zn  Zn299  1  0.61213000  0.73237700  0.78192800  1
  Zn  Zn300  1  0.95309300  0.17499800  0.72041500  1
  Zn  Zn301  1  0.31862400  0.75168900  0.73952100  1
  Zn  Zn302  1  0.48105900  0.50000000  0.72181800  1
  Zn  Zn303  1  0.90207000  0.17552400  0.76993400  1
  Zn  Zn304  1  0.75527400  0.03680400  0.78879000  1
  Zn  Zn305  1  0.89279800  0.33714800  0.79649000  1
