# generated using pymatgen
data_Mg8Tl3
_symmetry_space_group_name_H-M   'P 1'
_cell_length_a   6.32911714
_cell_length_b   8.77491562
_cell_length_c   45.19527000
_cell_angle_alpha   85.33535441
_cell_angle_beta   85.98488022
_cell_angle_gamma   68.86068493
_symmetry_Int_Tables_number   1
_chemical_formula_structural   Mg8Tl3
_chemical_formula_sum   'Mg32 Tl12'
_cell_volume   2331.13079959
_cell_formula_units_Z   4
loop_
 _symmetry_equiv_pos_site_id
 _symmetry_equiv_pos_as_xyz
  1  'x, y, z'
loop_
 _atom_site_type_symbol
 _atom_site_label
 _atom_site_symmetry_multiplicity
 _atom_site_fract_x
 _atom_site_fract_y
 _atom_site_fract_z
 _atom_site_occupancy
  Mg  Mg0  1  0.86919600  0.52184500  0.73976300  1
  Mg  Mg1  1  0.94162900  0.87485400  0.74188700  1
  Mg  Mg2  1  0.73989200  0.24470500  0.77551000  1
  Mg  Mg3  1  0.51482300  0.25486300  0.71549200  1
  Mg  Mg4  1  0.96773200  0.39613600  0.66840100  1
  Mg  Mg5  1  0.89529800  0.04312800  0.66627600  1
  Mg  Mg6  1  0.39529800  0.04312800  0.66627600  1
  Mg  Mg7  1  0.44162900  0.87485400  0.74188700  1
  Mg  Mg8  1  0.32210500  0.66311900  0.69267200  1
  Mg  Mg9  1  0.23989200  0.24470500  0.77551000  1
  Mg  Mg10  1  0.72633900  0.95041700  0.59690600  1
  Mg  Mg11  1  0.79877200  0.30342500  0.59903000  1
  Mg  Mg12  1  0.59703500  0.67327700  0.63265300  1
  Mg  Mg13  1  0.37196600  0.68343400  0.57263400  1
  Mg  Mg14  1  0.82487400  0.82470800  0.52554300  1
  Mg  Mg15  1  0.75244100  0.47169900  0.52341900  1
  Mg  Mg16  1  0.25244100  0.47169900  0.52341900  1
  Mg  Mg17  1  0.29877200  0.30342500  0.59903000  1
  Mg  Mg18  1  0.17924800  0.09169000  0.54981400  1
  Mg  Mg19  1  0.09703500  0.67327700  0.63265300  1
  Mg  Mg20  1  0.58348200  0.37898800  0.45404800  1
  Mg  Mg21  1  0.65591500  0.73199700  0.45617300  1
  Mg  Mg22  1  0.45417800  0.10184800  0.48979600  1
  Mg  Mg23  1  0.22910800  0.11200600  0.42977700  1
  Mg  Mg24  1  0.68201700  0.25327900  0.38268600  1
  Mg  Mg25  1  0.60958400  0.90027100  0.38056200  1
  Mg  Mg26  1  0.10958400  0.90027100  0.38056200  1
  Mg  Mg27  1  0.15591500  0.73199700  0.45617300  1
  Mg  Mg28  1  0.03639100  0.52026200  0.40695700  1
  Mg  Mg29  1  0.95417800  0.10184800  0.48979600  1
  Mg  Mg30  1  0.31132100  0.53041900  0.34693900  1
  Mg  Mg31  1  0.81132100  0.53041900  0.34693900  1
  Tl  Tl32  1  0.05669900  0.16611700  0.72048600  1
  Tl  Tl33  1  0.34784700  0.54901200  0.75529500  1
  Tl  Tl34  1  0.48908100  0.36897000  0.65286800  1
  Tl  Tl35  1  0.78022900  0.75186500  0.68767700  1
  Tl  Tl36  1  0.91384100  0.59468800  0.57762900  1
  Tl  Tl37  1  0.20499000  0.97758300  0.61243800  1
  Tl  Tl38  1  0.34622400  0.79754100  0.51001100  1
  Tl  Tl39  1  0.63737200  0.18043700  0.54482000  1
  Tl  Tl40  1  0.77098400  0.02325900  0.43477200  1
  Tl  Tl41  1  0.06213200  0.40615500  0.46958100  1
  Tl  Tl42  1  0.20336700  0.22611300  0.36715400  1
  Tl  Tl43  1  0.49451500  0.60900800  0.40196300  1
