# generated using pymatgen
data_Mg45As32
_symmetry_space_group_name_H-M   'P 1'
_cell_length_a   17.64245218
_cell_length_b   17.64245173
_cell_length_c   51.43614400
_cell_angle_alpha   90.00000000
_cell_angle_beta   80.12503724
_cell_angle_gamma   60.00000132
_symmetry_Int_Tables_number   1
_chemical_formula_structural   Mg45As32
_chemical_formula_sum   'Mg180 As128'
_cell_volume   13590.32609305
_cell_formula_units_Z   4
loop_
 _symmetry_equiv_pos_site_id
 _symmetry_equiv_pos_as_xyz
  1  'x, y, z'
loop_
 _atom_site_type_symbol
 _atom_site_label
 _atom_site_symmetry_multiplicity
 _atom_site_fract_x
 _atom_site_fract_y
 _atom_site_fract_z
 _atom_site_occupancy
  Mg  Mg0  1  0.64976300  0.24755600  0.27925800  1
  Mg  Mg1  1  0.65753600  0.46299000  0.27666700  1
  Mg  Mg2  1  0.92260100  0.72860400  0.27666700  1
  Mg  Mg3  1  0.89753200  0.22579900  0.27479700  1
  Mg  Mg4  1  0.44231500  0.34800700  0.34622600  1
  Mg  Mg5  1  0.67763700  0.35081200  0.34809600  1
  Mg  Mg6  1  0.40191500  0.47333400  0.28356300  1
  Mg  Mg7  1  0.14321800  0.72342200  0.27925800  1
  Mg  Mg8  1  0.92166600  0.96673000  0.27479700  1
  Mg  Mg9  1  0.30526200  0.88912700  0.31359900  1
  Mg  Mg10  1  0.29748900  0.67369300  0.31619000  1
  Mg  Mg11  1  0.03242400  0.40807900  0.31619000  1
  Mg  Mg12  1  0.03335800  0.16995300  0.31806000  1
  Mg  Mg13  1  0.81180600  0.41326100  0.31359900  1
  Mg  Mg14  1  0.55311000  0.66334900  0.30929400  1
  Mg  Mg15  1  0.27738800  0.78587100  0.24476100  1
  Mg  Mg16  1  0.51270900  0.78867600  0.24663100  1
  Mg  Mg17  1  0.05749200  0.91088400  0.31806000  1
  Mg  Mg18  1  0.94325000  0.82013300  0.34809600  1
  Mg  Mg19  1  0.39537000  0.23894700  0.28356300  1
  Mg  Mg20  1  0.20831500  0.08574700  0.34809600  1
  Mg  Mg21  1  0.17389700  0.21687700  0.27925800  1
  Mg  Mg22  1  0.18324600  0.58294200  0.34622600  1
  Mg  Mg23  1  0.15660100  0.99086400  0.27479700  1
  Mg  Mg24  1  0.39192200  0.99366900  0.27666700  1
  Mg  Mg25  1  0.16098400  0.47987800  0.28356300  1
  Mg  Mg26  1  0.20738000  0.32387300  0.34622600  1
  Mg  Mg27  1  0.01177400  0.31655000  0.24476100  1
  Mg  Mg28  1  0.55965400  0.89773600  0.30929400  1
  Mg  Mg29  1  0.74670900  0.05093600  0.24476100  1
  Mg  Mg30  1  0.74764400  0.81281000  0.24663100  1
  Mg  Mg31  1  0.79404100  0.65680500  0.30929400  1
  Mg  Mg32  1  0.56310200  0.14301400  0.31619000  1
  Mg  Mg33  1  0.79842300  0.14581900  0.31806000  1
  Mg  Mg34  1  0.77177800  0.55374100  0.24663100  1
  Mg  Mg35  1  0.78112800  0.91980600  0.31359900  1
  Mg  Mg36  1  0.22119100  0.96184100  0.42211600  1
  Mg  Mg37  1  0.22896400  0.17727600  0.41952400  1
  Mg  Mg38  1  0.68108400  0.59609000  0.35499100  1
  Mg  Mg39  1  0.49403000  0.44289000  0.41952400  1
  Mg  Mg40  1  0.45961100  0.57402000  0.35068700  1
  Mg  Mg41  1  0.46896100  0.94008500  0.41765500  1
  Mg  Mg42  1  0.01374400  0.06229300  0.48908300  1
  Mg  Mg43  1  0.24906500  0.06509700  0.49095300  1
  Mg  Mg44  1  0.97334300  0.18761900  0.42642000  1
  Mg  Mg45  1  0.44669800  0.83702100  0.35499100  1
  Mg  Mg46  1  0.71464700  0.43770700  0.42211600  1
  Mg  Mg47  1  0.49309500  0.68101600  0.41765500  1
  Mg  Mg48  1  0.87669100  0.60341300  0.45645600  1
  Mg  Mg49  1  0.86891700  0.38797800  0.45904700  1
  Mg  Mg50  1  0.84536900  0.25487900  0.38072300  1
  Mg  Mg51  1  0.60385200  0.12236500  0.45904700  1
  Mg  Mg52  1  0.60478700  0.88423900  0.46091700  1
  Mg  Mg53  1  0.38323500  0.12754700  0.45645600  1
  Mg  Mg54  1  0.07975500  0.01394800  0.38072300  1
  Mg  Mg55  1  0.12453800  0.37763500  0.45215200  1
  Mg  Mg56  1  0.84881600  0.50015700  0.38761800  1
  Mg  Mg57  1  0.08413800  0.50296200  0.38948800  1
  Mg  Mg58  1  0.62892100  0.62517000  0.46091700  1
  Mg  Mg59  1  0.06684200  0.27694900  0.38502700  1
  Mg  Mg60  1  0.93547700  0.60469800  0.35068700  1
  Mg  Mg61  1  0.51467900  0.53441900  0.49095300  1
  Mg  Mg62  1  0.96679900  0.95323300  0.42642000  1
  Mg  Mg63  1  0.77974400  0.80003200  0.49095300  1
  Mg  Mg64  1  0.74532500  0.93116300  0.42211600  1
  Mg  Mg65  1  0.75467500  0.29722800  0.48908300  1
  Mg  Mg66  1  0.72803000  0.70515000  0.41765500  1
  Mg  Mg67  1  0.96335100  0.70795500  0.41952400  1
  Mg  Mg68  1  0.68762900  0.83047600  0.35499100  1
  Mg  Mg69  1  0.73241200  0.19416400  0.42642000  1
  Mg  Mg70  1  0.42893200  0.08056400  0.35068700  1
  Mg  Mg71  1  0.77880900  0.03815900  0.48908300  1
  Mg  Mg72  1  0.59097600  0.24627000  0.38502700  1
  Mg  Mg73  1  0.58320300  0.03083500  0.38761800  1
  Mg  Mg74  1  0.13108300  0.61202200  0.45215200  1
  Mg  Mg75  1  0.31813800  0.76522200  0.38761800  1
  Mg  Mg76  1  0.31907300  0.52709600  0.38948800  1
  Mg  Mg77  1  0.09752100  0.77040400  0.38502700  1
  Mg  Mg78  1  0.36546900  0.37109100  0.45215200  1
  Mg  Mg79  1  0.83882400  0.02049200  0.38072300  1
  Mg  Mg80  1  0.13453100  0.85730000  0.45904700  1
  Mg  Mg81  1  0.36985200  0.86010500  0.46091700  1
  Mg  Mg82  1  0.34320700  0.26802700  0.38948800  1
  Mg  Mg83  1  0.35255700  0.63409200  0.45645600  1
  Mg  Mg84  1  0.79262000  0.67612700  0.56497300  1
  Mg  Mg85  1  0.80039300  0.89156200  0.56238200  1
  Mg  Mg86  1  0.25251300  0.31037600  0.49784800  1
  Mg  Mg87  1  0.06545800  0.15717500  0.56238200  1
  Mg  Mg88  1  0.03103900  0.28830600  0.49354400  1
  Mg  Mg89  1  0.04038900  0.65437000  0.56051200  1
  Mg  Mg90  1  0.58517200  0.77657800  0.63194000  1
  Mg  Mg91  1  0.82049400  0.77938300  0.63381000  1
  Mg  Mg92  1  0.54477200  0.90190500  0.56927700  1
  Mg  Mg93  1  0.01812600  0.55130700  0.49784800  1
  Mg  Mg94  1  0.28607500  0.15199300  0.56497300  1
  Mg  Mg95  1  0.06452300  0.39530200  0.56051200  1
  Mg  Mg96  1  0.44811900  0.31769900  0.59931300  1
  Mg  Mg97  1  0.44034600  0.10226400  0.60190400  1
  Mg  Mg98  1  0.41679700  0.96916500  0.52358000  1
  Mg  Mg99  1  0.17528100  0.83665100  0.60190400  1
  Mg  Mg100  1  0.17621600  0.59852400  0.60377400  1
  Mg  Mg101  1  0.95466400  0.84183300  0.59931300  1
  Mg  Mg102  1  0.65118400  0.72823400  0.52358000  1
  Mg  Mg103  1  0.69596700  0.09192100  0.59500900  1
  Mg  Mg104  1  0.42024500  0.21444300  0.53047600  1
  Mg  Mg105  1  0.65556600  0.21724700  0.53234500  1
  Mg  Mg106  1  0.20035000  0.33945500  0.60377400  1
  Mg  Mg107  1  0.63827100  0.99123400  0.52788400  1
  Mg  Mg108  1  0.50690500  0.31898400  0.49354400  1
  Mg  Mg109  1  0.08610700  0.24870500  0.63381000  1
  Mg  Mg110  1  0.53822700  0.66751800  0.56927700  1
  Mg  Mg111  1  0.35117200  0.51431800  0.63381000  1
  Mg  Mg112  1  0.31675400  0.64544900  0.56497300  1
  Mg  Mg113  1  0.32610300  0.01151300  0.63194000  1
  Mg  Mg114  1  0.29945800  0.41943600  0.56051200  1
  Mg  Mg115  1  0.53478000  0.42224000  0.56238200  1
  Mg  Mg116  1  0.25905800  0.54476200  0.49784800  1
  Mg  Mg117  1  0.30384100  0.90844900  0.56927700  1
  Mg  Mg118  1  0.00036100  0.79485000  0.49354400  1
  Mg  Mg119  1  0.35023700  0.75244400  0.63194000  1
  Mg  Mg120  1  0.16240500  0.96055600  0.52788400  1
  Mg  Mg121  1  0.15463100  0.74512100  0.53047600  1
  Mg  Mg122  1  0.70251100  0.32630700  0.59500900  1
  Mg  Mg123  1  0.88956600  0.47950800  0.53047600  1
  Mg  Mg124  1  0.89050100  0.24138100  0.53234500  1
  Mg  Mg125  1  0.66894900  0.48469000  0.52788400  1
  Mg  Mg126  1  0.93689800  0.08537600  0.59500900  1
  Mg  Mg127  1  0.41025300  0.73477800  0.52358000  1
  Mg  Mg128  1  0.70595900  0.57158600  0.60190400  1
  Mg  Mg129  1  0.94128100  0.57439000  0.60377400  1
  Mg  Mg130  1  0.91463500  0.98231200  0.53234500  1
  Mg  Mg131  1  0.92398500  0.34837700  0.59931300  1
  Mg  Mg132  1  0.36404800  0.39041300  0.70783000  1
  Mg  Mg133  1  0.37182200  0.60584800  0.70523900  1
  Mg  Mg134  1  0.82394200  0.02466100  0.64070600  1
  Mg  Mg135  1  0.63688700  0.87146100  0.70523900  1
  Mg  Mg136  1  0.60246800  0.00259100  0.63640100  1
  Mg  Mg137  1  0.61181800  0.36865600  0.70336900  1
  Mg  Mg138  1  0.15660100  0.49086400  0.77479700  1
  Mg  Mg139  1  0.39192200  0.49366900  0.77666700  1
  Mg  Mg140  1  0.11620000  0.61619100  0.71213400  1
  Mg  Mg141  1  0.58955500  0.26559200  0.64070600  1
  Mg  Mg142  1  0.85750400  0.86627900  0.70783000  1
  Mg  Mg143  1  0.63595200  0.10958700  0.70336900  1
  Mg  Mg144  1  0.01954800  0.03198500  0.74217000  1
  Mg  Mg145  1  0.01177400  0.81655000  0.74476100  1
  Mg  Mg146  1  0.98822600  0.68345000  0.66643700  1
  Mg  Mg147  1  0.74670900  0.55093600  0.74476100  1
  Mg  Mg148  1  0.74764400  0.31281000  0.74663100  1
  Mg  Mg149  1  0.52609200  0.55611900  0.74217000  1
  Mg  Mg150  1  0.22261200  0.44251900  0.66643700  1
  Mg  Mg151  1  0.26739600  0.80620700  0.73786600  1
  Mg  Mg152  1  0.99167300  0.92872800  0.67333300  1
  Mg  Mg153  1  0.22699500  0.93153300  0.67520300  1
  Mg  Mg154  1  0.77177800  0.05374100  0.74663100  1
  Mg  Mg155  1  0.20969900  0.70552000  0.67074200  1
  Mg  Mg156  1  0.07833400  0.03327000  0.63640100  1
  Mg  Mg157  1  0.65753600  0.96299000  0.77666700  1
  Mg  Mg158  1  0.10965600  0.38180400  0.71213400  1
  Mg  Mg159  1  0.92260100  0.22860400  0.77666700  1
  Mg  Mg160  1  0.88818200  0.35973400  0.70783000  1
  Mg  Mg161  1  0.89753200  0.72579900  0.77479700  1
  Mg  Mg162  1  0.87088700  0.13372100  0.70336900  1
  Mg  Mg163  1  0.10620800  0.13652600  0.70523900  1
  Mg  Mg164  1  0.83048600  0.25904800  0.64070600  1
  Mg  Mg165  1  0.87526900  0.62273500  0.71213400  1
  Mg  Mg166  1  0.57178900  0.50913600  0.63640100  1
  Mg  Mg167  1  0.92166600  0.46673000  0.77479700  1
  Mg  Mg168  1  0.73383300  0.67484200  0.67074200  1
  Mg  Mg169  1  0.72606000  0.45940700  0.67333300  1
  Mg  Mg170  1  0.27394000  0.04059300  0.73786600  1
  Mg  Mg171  1  0.46099500  0.19379300  0.67333300  1
  Mg  Mg172  1  0.46193000  0.95566700  0.67520300  1
  Mg  Mg173  1  0.24037800  0.19897600  0.67074200  1
  Mg  Mg174  1  0.50832700  0.79966200  0.73786600  1
  Mg  Mg175  1  0.98168100  0.44906400  0.66643700  1
  Mg  Mg176  1  0.27738800  0.28587100  0.74476100  1
  Mg  Mg177  1  0.51270900  0.28867600  0.74663100  1
  Mg  Mg178  1  0.48606400  0.69659800  0.67520300  1
  Mg  Mg179  1  0.49541400  0.06266300  0.74217000  1
  As  As180  1  0.84412400  0.64608300  0.25755800  1
  As  As181  1  0.86090100  0.51269400  0.33529900  1
  As  As182  1  0.85774400  0.25322500  0.32898700  1
  As  As183  1  0.87983800  0.98113200  0.32898700  1
  As  As184  1  0.09728000  0.38345800  0.26387100  1
  As  As185  1  0.32518600  0.63345800  0.26387100  1
  As  As186  1  0.11090100  0.49060000  0.33529900  1
  As  As187  1  0.09412400  0.62398900  0.25755800  1
  As  As188  1  0.09728000  0.88345800  0.26387100  1
  As  As189  1  0.07518600  0.15555100  0.26387100  1
  As  As190  1  0.85774400  0.75322500  0.32898700  1
  As  As191  1  0.62983800  0.50322500  0.32898700  1
  As  As192  1  0.33465500  0.88977000  0.26071400  1
  As  As193  1  0.62036900  0.74691300  0.33214300  1
  As  As194  1  0.83465500  0.38977000  0.26071400  1
  As  As195  1  0.83465500  0.88977000  0.26071400  1
  As  As196  1  0.12983800  0.00322500  0.32898700  1
  As  As197  1  0.57518600  0.15555100  0.26387100  1
  As  As198  1  0.57203000  0.89608300  0.25755800  1
  As  As199  1  0.59412400  0.62398900  0.25755800  1
  As  As200  1  0.38299400  0.74060000  0.33529900  1
  As  As201  1  0.61090100  0.99060000  0.33529900  1
  As  As202  1  0.82518600  0.13345800  0.26387100  1
  As  As203  1  0.37983800  0.98113200  0.32898700  1
  As  As204  1  0.38299400  0.24060000  0.33529900  1
  As  As205  1  0.36090100  0.51269400  0.33529900  1
  As  As206  1  0.57203000  0.39608300  0.25755800  1
  As  As207  1  0.34412400  0.14608300  0.25755800  1
  As  As208  1  0.62036900  0.24691300  0.33214300  1
  As  As209  1  0.33465500  0.38977000  0.26071400  1
  As  As210  1  0.12036900  0.74691300  0.33214300  1
  As  As211  1  0.12036900  0.24691300  0.33214300  1
  As  As212  1  0.41555200  0.36036800  0.40041500  1
  As  As213  1  0.43232900  0.22698000  0.47815600  1
  As  As214  1  0.42917300  0.96751100  0.47184400  1
  As  As215  1  0.45126700  0.69541700  0.47184400  1
  As  As216  1  0.66870900  0.09774300  0.40672800  1
  As  As217  1  0.89661500  0.34774300  0.40672800  1
  As  As218  1  0.68232900  0.20488600  0.47815600  1
  As  As219  1  0.66555200  0.33827500  0.40041500  1
  As  As220  1  0.66870900  0.59774300  0.40672800  1
  As  As221  1  0.64661500  0.86983700  0.40672800  1
  As  As222  1  0.42917300  0.46751100  0.47184400  1
  As  As223  1  0.20126700  0.21751100  0.47184400  1
  As  As224  1  0.90608400  0.60405600  0.40357100  1
  As  As225  1  0.19179800  0.46119900  0.47500000  1
  As  As226  1  0.40608400  0.10405600  0.40357100  1
  As  As227  1  0.40608400  0.60405600  0.40357100  1
  As  As228  1  0.70126700  0.71751100  0.47184400  1
  As  As229  1  0.14661500  0.86983700  0.40672800  1
  As  As230  1  0.14345900  0.61036800  0.40041500  1
  As  As231  1  0.16555200  0.33827500  0.40041500  1
  As  As232  1  0.95442300  0.45488600  0.47815600  1
  As  As233  1  0.18232900  0.70488600  0.47815600  1
  As  As234  1  0.39661500  0.84774300  0.40672800  1
  As  As235  1  0.95126700  0.69541700  0.47184400  1
  As  As236  1  0.95442300  0.95488600  0.47815600  1
  As  As237  1  0.93232900  0.22698000  0.47815600  1
  As  As238  1  0.14345900  0.11036800  0.40041500  1
  As  As239  1  0.91555200  0.86036800  0.40041500  1
  As  As240  1  0.19179800  0.96119900  0.47500000  1
  As  As241  1  0.90608400  0.10405600  0.40357100  1
  As  As242  1  0.69179800  0.46119900  0.47500000  1
  As  As243  1  0.69179800  0.96119900  0.47500000  1
  As  As244  1  0.98698100  0.07465400  0.54327200  1
  As  As245  1  0.00375800  0.94126600  0.62101300  1
  As  As246  1  0.00060200  0.68179700  0.61470100  1
  As  As247  1  0.02269500  0.40970300  0.61470100  1
  As  As248  1  0.24013700  0.81202900  0.54958500  1
  As  As249  1  0.46804300  0.06202900  0.54958500  1
  As  As250  1  0.25375800  0.91917200  0.62101300  1
  As  As251  1  0.23698100  0.05256000  0.54327200  1
  As  As252  1  0.24013700  0.31202900  0.54958500  1
  As  As253  1  0.21804300  0.58412300  0.54958500  1
  As  As254  1  0.00060200  0.18179700  0.61470100  1
  As  As255  1  0.77269500  0.93179700  0.61470100  1
  As  As256  1  0.47751200  0.31834100  0.54642900  1
  As  As257  1  0.76322700  0.17548400  0.61785700  1
  As  As258  1  0.97751200  0.81834100  0.54642900  1
  As  As259  1  0.97751200  0.31834100  0.54642900  1
  As  As260  1  0.27269500  0.43179700  0.61470100  1
  As  As261  1  0.71804300  0.58412300  0.54958500  1
  As  As262  1  0.71488700  0.32465400  0.54327200  1
  As  As263  1  0.73698100  0.05256000  0.54327200  1
  As  As264  1  0.52585200  0.16917200  0.62101300  1
  As  As265  1  0.75375800  0.41917200  0.62101300  1
  As  As266  1  0.96804300  0.56202900  0.54958500  1
  As  As267  1  0.52269500  0.40970300  0.61470100  1
  As  As268  1  0.52585200  0.66917200  0.62101300  1
  As  As269  1  0.50375800  0.94126600  0.62101300  1
  As  As270  1  0.71488700  0.82465400  0.54327200  1
  As  As271  1  0.48698100  0.57465400  0.54327200  1
  As  As272  1  0.76322700  0.67548400  0.61785700  1
  As  As273  1  0.47751200  0.81834100  0.54642900  1
  As  As274  1  0.26322700  0.17548400  0.61785700  1
  As  As275  1  0.26322700  0.67548400  0.61785700  1
  As  As276  1  0.55841000  0.78894000  0.68612900  1
  As  As277  1  0.57518600  0.65555100  0.76387100  1
  As  As278  1  0.57203000  0.39608300  0.75755800  1
  As  As279  1  0.59412400  0.12398900  0.75755800  1
  As  As280  1  0.81156600  0.52631500  0.69244200  1
  As  As281  1  0.03947200  0.77631500  0.69244200  1
  As  As282  1  0.82518600  0.63345800  0.76387100  1
  As  As283  1  0.80841000  0.76684600  0.68612900  1
  As  As284  1  0.81156600  0.02631500  0.69244200  1
  As  As285  1  0.78947200  0.29840800  0.69244200  1
  As  As286  1  0.57203000  0.89608300  0.75755800  1
  As  As287  1  0.34412400  0.64608300  0.75755800  1
  As  As288  1  0.04894100  0.03262700  0.68928600  1
  As  As289  1  0.33465500  0.88977000  0.76071400  1
  As  As290  1  0.54894100  0.53262700  0.68928600  1
  As  As291  1  0.54894100  0.03262700  0.68928600  1
  As  As292  1  0.84412400  0.14608300  0.75755800  1
  As  As293  1  0.28947200  0.29840800  0.69244200  1
  As  As294  1  0.28631600  0.03894000  0.68612900  1
  As  As295  1  0.30841000  0.76684600  0.68612900  1
  As  As296  1  0.09728000  0.88345800  0.76387100  1
  As  As297  1  0.32518600  0.13345800  0.76387100  1
  As  As298  1  0.53947200  0.27631500  0.69244200  1
  As  As299  1  0.09412400  0.12398900  0.75755800  1
  As  As300  1  0.09728000  0.38345800  0.76387100  1
  As  As301  1  0.07518600  0.65555100  0.76387100  1
  As  As302  1  0.28631600  0.53894000  0.68612900  1
  As  As303  1  0.05841000  0.28894000  0.68612900  1
  As  As304  1  0.33465500  0.38977000  0.76071400  1
  As  As305  1  0.04894100  0.53262700  0.68928600  1
  As  As306  1  0.83465500  0.88977000  0.76071400  1
  As  As307  1  0.83465500  0.38977000  0.76071400  1
