# generated using pymatgen
data_Dy2Mg
_symmetry_space_group_name_H-M   'P 1'
_cell_length_a   6.60896985
_cell_length_b   17.10046000
_cell_length_c   42.97651500
_cell_angle_alpha   90.00000000
_cell_angle_beta   93.35866149
_cell_angle_gamma   90.00000000
_symmetry_Int_Tables_number   1
_chemical_formula_structural   Dy2Mg
_chemical_formula_sum   'Dy72 Mg36'
_cell_volume   4848.70938451
_cell_formula_units_Z   36
loop_
 _symmetry_equiv_pos_site_id
 _symmetry_equiv_pos_as_xyz
  1  'x, y, z'
loop_
 _atom_site_type_symbol
 _atom_site_label
 _atom_site_symmetry_multiplicity
 _atom_site_fract_x
 _atom_site_fract_y
 _atom_site_fract_z
 _atom_site_occupancy
  Dy  Dy0  1  0.67857100  0.90825600  0.19642900  1
  Dy  Dy1  1  0.53571400  0.72786200  0.23214300  1
  Dy  Dy2  1  0.17857100  0.59174400  0.19642900  1
  Dy  Dy3  1  0.03571400  0.77213800  0.23214300  1
  Dy  Dy4  1  0.53571400  0.40825600  0.23214300  1
  Dy  Dy5  1  0.67857100  0.22786200  0.19642900  1
  Dy  Dy6  1  0.03571400  0.09174400  0.23214300  1
  Dy  Dy7  1  0.17857100  0.27213800  0.19642900  1
  Dy  Dy8  1  0.39285700  0.90825600  0.26785700  1
  Dy  Dy9  1  0.25000000  0.72786200  0.30357100  1
  Dy  Dy10  1  0.89285700  0.59174400  0.26785700  1
  Dy  Dy11  1  0.75000000  0.77213800  0.30357100  1
  Dy  Dy12  1  0.25000000  0.40825600  0.30357100  1
  Dy  Dy13  1  0.39285700  0.22786200  0.26785700  1
  Dy  Dy14  1  0.75000000  0.09174400  0.30357100  1
  Dy  Dy15  1  0.89285700  0.27213800  0.26785700  1
  Dy  Dy16  1  0.10714300  0.90825600  0.33928600  1
  Dy  Dy17  1  0.96428600  0.72786200  0.37500000  1
  Dy  Dy18  1  0.60714300  0.59174400  0.33928600  1
  Dy  Dy19  1  0.46428600  0.77213800  0.37500000  1
  Dy  Dy20  1  0.96428600  0.40825600  0.37500000  1
  Dy  Dy21  1  0.10714300  0.22786200  0.33928600  1
  Dy  Dy22  1  0.46428600  0.09174400  0.37500000  1
  Dy  Dy23  1  0.60714300  0.27213800  0.33928600  1
  Dy  Dy24  1  0.82142900  0.90825600  0.41071400  1
  Dy  Dy25  1  0.67857100  0.72786200  0.44642900  1
  Dy  Dy26  1  0.32142900  0.59174400  0.41071400  1
  Dy  Dy27  1  0.17857100  0.77213800  0.44642900  1
  Dy  Dy28  1  0.67857100  0.40825600  0.44642900  1
  Dy  Dy29  1  0.82142900  0.22786200  0.41071400  1
  Dy  Dy30  1  0.17857100  0.09174400  0.44642900  1
  Dy  Dy31  1  0.32142900  0.27213800  0.41071400  1
  Dy  Dy32  1  0.53571400  0.90825600  0.48214300  1
  Dy  Dy33  1  0.39285700  0.72786200  0.51785700  1
  Dy  Dy34  1  0.03571400  0.59174400  0.48214300  1
  Dy  Dy35  1  0.89285700  0.77213800  0.51785700  1
  Dy  Dy36  1  0.39285700  0.40825600  0.51785700  1
  Dy  Dy37  1  0.53571400  0.22786200  0.48214300  1
  Dy  Dy38  1  0.89285700  0.09174400  0.51785700  1
  Dy  Dy39  1  0.03571400  0.27213800  0.48214300  1
  Dy  Dy40  1  0.25000000  0.90825600  0.55357100  1
  Dy  Dy41  1  0.10714300  0.72786200  0.58928600  1
  Dy  Dy42  1  0.75000000  0.59174400  0.55357100  1
  Dy  Dy43  1  0.60714300  0.77213800  0.58928600  1
  Dy  Dy44  1  0.10714300  0.40825600  0.58928600  1
  Dy  Dy45  1  0.25000000  0.22786200  0.55357100  1
  Dy  Dy46  1  0.60714300  0.09174400  0.58928600  1
  Dy  Dy47  1  0.75000000  0.27213800  0.55357100  1
  Dy  Dy48  1  0.96428600  0.90825600  0.62500000  1
  Dy  Dy49  1  0.82142900  0.72786200  0.66071400  1
  Dy  Dy50  1  0.46428600  0.59174400  0.62500000  1
  Dy  Dy51  1  0.32142900  0.77213800  0.66071400  1
  Dy  Dy52  1  0.82142900  0.40825600  0.66071400  1
  Dy  Dy53  1  0.96428600  0.22786200  0.62500000  1
  Dy  Dy54  1  0.32142900  0.09174400  0.66071400  1
  Dy  Dy55  1  0.46428600  0.27213800  0.62500000  1
  Dy  Dy56  1  0.67857100  0.90825600  0.69642900  1
  Dy  Dy57  1  0.53571400  0.72786200  0.73214300  1
  Dy  Dy58  1  0.17857100  0.59174400  0.69642900  1
  Dy  Dy59  1  0.03571400  0.77213800  0.73214300  1
  Dy  Dy60  1  0.53571400  0.40825600  0.73214300  1
  Dy  Dy61  1  0.67857100  0.22786200  0.69642900  1
  Dy  Dy62  1  0.03571400  0.09174400  0.73214300  1
  Dy  Dy63  1  0.17857100  0.27213800  0.69642900  1
  Dy  Dy64  1  0.39285700  0.90825600  0.76785700  1
  Dy  Dy65  1  0.25000000  0.72786200  0.80357100  1
  Dy  Dy66  1  0.89285700  0.59174400  0.76785700  1
  Dy  Dy67  1  0.75000000  0.77213800  0.80357100  1
  Dy  Dy68  1  0.25000000  0.40825600  0.80357100  1
  Dy  Dy69  1  0.39285700  0.22786200  0.76785700  1
  Dy  Dy70  1  0.75000000  0.09174400  0.80357100  1
  Dy  Dy71  1  0.89285700  0.27213800  0.76785700  1
  Mg  Mg72  1  0.67857100  0.56703700  0.19642900  1
  Mg  Mg73  1  0.17857100  0.93296300  0.19642900  1
  Mg  Mg74  1  0.53571400  0.06703700  0.23214300  1
  Mg  Mg75  1  0.03571400  0.43296300  0.23214300  1
  Mg  Mg76  1  0.39285700  0.56703700  0.26785700  1
  Mg  Mg77  1  0.89285700  0.93296300  0.26785700  1
  Mg  Mg78  1  0.25000000  0.06703700  0.30357100  1
  Mg  Mg79  1  0.75000000  0.43296300  0.30357100  1
  Mg  Mg80  1  0.10714300  0.56703700  0.33928600  1
  Mg  Mg81  1  0.60714300  0.93296300  0.33928600  1
  Mg  Mg82  1  0.96428600  0.06703700  0.37500000  1
  Mg  Mg83  1  0.46428600  0.43296300  0.37500000  1
  Mg  Mg84  1  0.82142900  0.56703700  0.41071400  1
  Mg  Mg85  1  0.32142900  0.93296300  0.41071400  1
  Mg  Mg86  1  0.67857100  0.06703700  0.44642900  1
  Mg  Mg87  1  0.17857100  0.43296300  0.44642900  1
  Mg  Mg88  1  0.53571400  0.56703700  0.48214300  1
  Mg  Mg89  1  0.03571400  0.93296300  0.48214300  1
  Mg  Mg90  1  0.39285700  0.06703700  0.51785700  1
  Mg  Mg91  1  0.89285700  0.43296300  0.51785700  1
  Mg  Mg92  1  0.25000000  0.56703700  0.55357100  1
  Mg  Mg93  1  0.75000000  0.93296300  0.55357100  1
  Mg  Mg94  1  0.10714300  0.06703700  0.58928600  1
  Mg  Mg95  1  0.60714300  0.43296300  0.58928600  1
  Mg  Mg96  1  0.96428600  0.56703700  0.62500000  1
  Mg  Mg97  1  0.46428600  0.93296300  0.62500000  1
  Mg  Mg98  1  0.82142900  0.06703700  0.66071400  1
  Mg  Mg99  1  0.32142900  0.43296300  0.66071400  1
  Mg  Mg100  1  0.67857100  0.56703700  0.69642900  1
  Mg  Mg101  1  0.17857100  0.93296300  0.69642900  1
  Mg  Mg102  1  0.53571400  0.06703700  0.73214300  1
  Mg  Mg103  1  0.03571400  0.43296300  0.73214300  1
  Mg  Mg104  1  0.39285700  0.56703700  0.76785700  1
  Mg  Mg105  1  0.89285700  0.93296300  0.76785700  1
  Mg  Mg106  1  0.25000000  0.06703700  0.80357100  1
  Mg  Mg107  1  0.75000000  0.43296300  0.80357100  1
