# generated using pymatgen
data_MgIn2
_symmetry_space_group_name_H-M   'P 1'
_cell_length_a   5.02728877
_cell_length_b   12.40585501
_cell_length_c   44.42529300
_cell_angle_alpha   87.13605415
_cell_angle_beta   93.24360728
_cell_angle_gamma   78.30993026
_symmetry_Int_Tables_number   1
_chemical_formula_structural   MgIn2
_chemical_formula_sum   'Mg22 In44'
_cell_volume   2703.53942527
_cell_formula_units_Z   22
loop_
 _symmetry_equiv_pos_site_id
 _symmetry_equiv_pos_as_xyz
  1  'x, y, z'
loop_
 _atom_site_type_symbol
 _atom_site_label
 _atom_site_symmetry_multiplicity
 _atom_site_fract_x
 _atom_site_fract_y
 _atom_site_fract_z
 _atom_site_occupancy
  Mg  Mg0  1  0.66666700  0.95833300  0.23611100  1
  Mg  Mg1  1  0.38888900  0.48611100  0.20833300  1
  Mg  Mg2  1  0.22222200  0.90277800  0.29166700  1
  Mg  Mg3  1  0.94444400  0.43055600  0.26388900  1
  Mg  Mg4  1  0.77777800  0.84722200  0.34722200  1
  Mg  Mg5  1  0.50000000  0.37500000  0.31944400  1
  Mg  Mg6  1  0.33333300  0.79166700  0.40277800  1
  Mg  Mg7  1  0.05555600  0.31944400  0.37500000  1
  Mg  Mg8  1  0.88888900  0.73611100  0.45833300  1
  Mg  Mg9  1  0.61111100  0.26388900  0.43055600  1
  Mg  Mg10  1  0.44444400  0.68055600  0.51388900  1
  Mg  Mg11  1  0.16666700  0.20833300  0.48611100  1
  Mg  Mg12  1  1.00000000  0.62500000  0.56944400  1
  Mg  Mg13  1  0.72222200  0.15277800  0.54166700  1
  Mg  Mg14  1  0.55555600  0.56944400  0.62500000  1
  Mg  Mg15  1  0.27777800  0.09722200  0.59722200  1
  Mg  Mg16  1  0.11111100  0.51388900  0.68055600  1
  Mg  Mg17  1  0.83333300  0.04166700  0.65277800  1
  Mg  Mg18  1  0.66666700  0.45833300  0.73611100  1
  Mg  Mg19  1  0.38888900  0.98611100  0.70833300  1
  Mg  Mg20  1  0.22222200  0.40277800  0.79166700  1
  Mg  Mg21  1  0.94444400  0.93055600  0.76388900  1
  In  In22  1  0.09480000  0.11104900  0.24509400  1
  In  In23  1  0.96075500  0.33339500  0.19935000  1
  In  In24  1  0.81702200  0.63882700  0.21731700  1
  In  In25  1  0.23853300  0.80561700  0.22712800  1
  In  In26  1  0.65035600  0.05549400  0.30065000  1
  In  In27  1  0.51631100  0.27783900  0.25490600  1
  In  In28  1  0.37257800  0.58327200  0.27287200  1
  In  In29  1  0.79408900  0.75006200  0.28268300  1
  In  In30  1  0.20591100  0.99993800  0.35620600  1
  In  In31  1  0.07186600  0.22228400  0.31046100  1
  In  In32  1  0.92813400  0.52771600  0.32842800  1
  In  In33  1  0.34964400  0.69450600  0.33823900  1
  In  In34  1  0.76146700  0.94438300  0.41176100  1
  In  In35  1  0.62742200  0.16672800  0.36601700  1
  In  In36  1  0.48368900  0.47216100  0.38398300  1
  In  In37  1  0.90520000  0.63895100  0.39379400  1
  In  In38  1  0.31702200  0.88882700  0.46731700  1
  In  In39  1  0.18297800  0.11117300  0.42157200  1
  In  In40  1  0.03924500  0.41660500  0.43953900  1
  In  In41  1  0.46075500  0.58339500  0.44935000  1
  In  In42  1  0.87257800  0.83327200  0.52287200  1
  In  In43  1  0.73853300  0.05561700  0.47712800  1
  In  In44  1  0.59480000  0.36104900  0.49509400  1
  In  In45  1  0.01631100  0.52783900  0.50490600  1
  In  In46  1  0.42813400  0.77771600  0.57842800  1
  In  In47  1  0.29408900  0.00006200  0.53268300  1
  In  In48  1  0.15035600  0.30549400  0.55065000  1
  In  In49  1  0.57186600  0.47228400  0.56046100  1
  In  In50  1  0.98368900  0.72216100  0.63398300  1
  In  In51  1  0.84964400  0.94450600  0.58823900  1
  In  In52  1  0.70591100  0.24993800  0.60620600  1
  In  In53  1  0.12742200  0.41672800  0.61601700  1
  In  In54  1  0.53924500  0.66660500  0.68953900  1
  In  In55  1  0.40520000  0.88895100  0.64379400  1
  In  In56  1  0.26146700  0.19438300  0.66176100  1
  In  In57  1  0.68297800  0.36117300  0.67157200  1
  In  In58  1  0.09480000  0.61104900  0.74509400  1
  In  In59  1  0.96075500  0.83339500  0.69935000  1
  In  In60  1  0.81702200  0.13882700  0.71731700  1
  In  In61  1  0.23853300  0.30561700  0.72712800  1
  In  In62  1  0.65035600  0.55549400  0.80065000  1
  In  In63  1  0.51631100  0.77783900  0.75490600  1
  In  In64  1  0.37257800  0.08327200  0.77287200  1
  In  In65  1  0.79408900  0.25006200  0.78268300  1
