# generated using pymatgen
data_MgCd3
_symmetry_space_group_name_H-M   'P 1'
_cell_length_a   5.12145700
_cell_length_b   6.29994100
_cell_length_c   43.64727300
_cell_angle_alpha   90.00000000
_cell_angle_beta   90.00000000
_cell_angle_gamma   90.00000000
_symmetry_Int_Tables_number   1
_chemical_formula_structural   MgCd3
_chemical_formula_sum   'Mg10 Cd30'
_cell_volume   1408.27389185
_cell_formula_units_Z   10
loop_
 _symmetry_equiv_pos_site_id
 _symmetry_equiv_pos_as_xyz
  1  'x, y, z'
loop_
 _atom_site_type_symbol
 _atom_site_label
 _atom_site_symmetry_multiplicity
 _atom_site_fract_x
 _atom_site_fract_y
 _atom_site_fract_z
 _atom_site_occupancy
  Mg  Mg0  1  0.25000000  0.50000000  0.22916700  1
  Mg  Mg1  1  0.75000000  0.00000000  0.27083300  1
  Mg  Mg2  1  0.25000000  0.00000000  0.35416700  1
  Mg  Mg3  1  0.75000000  0.50000000  0.39583300  1
  Mg  Mg4  1  0.25000000  0.50000000  0.47916700  1
  Mg  Mg5  1  0.75000000  0.00000000  0.52083300  1
  Mg  Mg6  1  0.25000000  0.00000000  0.60416700  1
  Mg  Mg7  1  0.75000000  0.50000000  0.64583300  1
  Mg  Mg8  1  0.25000000  0.50000000  0.72916700  1
  Mg  Mg9  1  0.75000000  0.00000000  0.77083300  1
  Cd  Cd10  1  0.25000000  0.75032200  0.29164000  1
  Cd  Cd11  1  0.75000000  0.74967800  0.20836000  1
  Cd  Cd12  1  0.75000000  0.25032200  0.20836000  1
  Cd  Cd13  1  0.25000000  0.00000000  0.22922000  1
  Cd  Cd14  1  0.25000000  0.24967800  0.29164000  1
  Cd  Cd15  1  0.75000000  0.50000000  0.27078000  1
  Cd  Cd16  1  0.25000000  0.25032200  0.41664000  1
  Cd  Cd17  1  0.75000000  0.24967800  0.33336000  1
  Cd  Cd18  1  0.75000000  0.75032200  0.33336000  1
  Cd  Cd19  1  0.25000000  0.50000000  0.35422000  1
  Cd  Cd20  1  0.25000000  0.74967800  0.41664000  1
  Cd  Cd21  1  0.75000000  0.00000000  0.39578000  1
  Cd  Cd22  1  0.25000000  0.75032200  0.54164000  1
  Cd  Cd23  1  0.75000000  0.74967800  0.45836000  1
  Cd  Cd24  1  0.75000000  0.25032200  0.45836000  1
  Cd  Cd25  1  0.25000000  0.00000000  0.47922000  1
  Cd  Cd26  1  0.25000000  0.24967800  0.54164000  1
  Cd  Cd27  1  0.75000000  0.50000000  0.52078000  1
  Cd  Cd28  1  0.25000000  0.25032200  0.66664000  1
  Cd  Cd29  1  0.75000000  0.24967800  0.58336000  1
  Cd  Cd30  1  0.75000000  0.75032200  0.58336000  1
  Cd  Cd31  1  0.25000000  0.50000000  0.60422000  1
  Cd  Cd32  1  0.25000000  0.74967800  0.66664000  1
  Cd  Cd33  1  0.75000000  0.00000000  0.64578000  1
  Cd  Cd34  1  0.25000000  0.75032200  0.79164000  1
  Cd  Cd35  1  0.75000000  0.74967800  0.70836000  1
  Cd  Cd36  1  0.75000000  0.25032200  0.70836000  1
  Cd  Cd37  1  0.25000000  0.00000000  0.72922000  1
  Cd  Cd38  1  0.25000000  0.24967800  0.79164000  1
  Cd  Cd39  1  0.75000000  0.50000000  0.77078000  1
