# generated using pymatgen
data_Mg106Zn195
_symmetry_space_group_name_H-M   'P 1'
_cell_length_a   13.26606255
_cell_length_b   15.58232770
_cell_length_c   46.38065300
_cell_angle_alpha   94.29618326
_cell_angle_beta   88.49627591
_cell_angle_gamma   99.94210053
_symmetry_Int_Tables_number   1
_chemical_formula_structural   Mg106Zn195
_chemical_formula_sum   'Mg106 Zn195'
_cell_volume   9416.24935325
_cell_formula_units_Z   1
loop_
 _symmetry_equiv_pos_site_id
 _symmetry_equiv_pos_as_xyz
  1  'x, y, z'
loop_
 _atom_site_type_symbol
 _atom_site_label
 _atom_site_symmetry_multiplicity
 _atom_site_fract_x
 _atom_site_fract_y
 _atom_site_fract_z
 _atom_site_occupancy
  Mg  Mg0  1  0.51721600  0.25975400  0.29163000  1
  Mg  Mg1  1  0.81695100  0.88949600  0.26599000  1
  Mg  Mg2  1  0.02845700  0.95591200  0.28673700  1
  Mg  Mg3  1  0.56619900  0.59902000  0.27623200  1
  Mg  Mg4  1  0.32819100  0.58565300  0.26109700  1
  Mg  Mg5  1  0.27920900  0.24638800  0.27649500  1
  Mg  Mg6  1  0.64414700  0.79496200  0.30392600  1
  Mg  Mg7  1  0.96672500  0.61091600  0.30157600  1
  Mg  Mg8  1  0.41721600  0.15975400  0.39163000  1
  Mg  Mg9  1  0.71695100  0.78949600  0.36599000  1
  Mg  Mg10  1  0.83341600  0.46625200  0.33497100  1
  Mg  Mg11  1  0.46332300  0.91962500  0.30749600  1
  Mg  Mg12  1  0.59749400  0.45550400  0.32010800  1
  Mg  Mg13  1  0.92845700  0.85591200  0.38673700  1
  Mg  Mg14  1  0.46619900  0.49902000  0.37623200  1
  Mg  Mg15  1  0.91199200  0.27915600  0.31775700  1
  Mg  Mg16  1  0.22819100  0.48565300  0.36109700  1
  Mg  Mg17  1  0.17920900  0.14638800  0.37649500  1
  Mg  Mg18  1  0.89500100  0.78630400  0.31767500  1
  Mg  Mg19  1  0.54507300  0.11464700  0.33559100  1
  Mg  Mg20  1  0.20033400  0.63076000  0.31713600  1
  Mg  Mg21  1  0.14791300  0.28990400  0.33261900  1
  Mg  Mg22  1  0.10126000  0.95044600  0.34880100  1
  Mg  Mg23  1  0.28208500  0.82578300  0.34523100  1
  Mg  Mg24  1  0.77868200  0.13449200  0.35115100  1
  Mg  Mg25  1  0.85040700  0.95910400  0.33505200  1
  Mg  Mg26  1  0.54414700  0.69496200  0.40392600  1
  Mg  Mg27  1  0.86672500  0.51091600  0.40157600  1
  Mg  Mg28  1  0.31721600  0.05975400  0.49163000  1
  Mg  Mg29  1  0.61695100  0.68949600  0.46599000  1
  Mg  Mg30  1  0.73341600  0.36625200  0.43497100  1
  Mg  Mg31  1  0.36332300  0.81962500  0.40749600  1
  Mg  Mg32  1  0.49749400  0.35550400  0.42010800  1
  Mg  Mg33  1  0.82845700  0.75591200  0.48673700  1
  Mg  Mg34  1  0.36619900  0.39902000  0.47623200  1
  Mg  Mg35  1  0.81199200  0.17915600  0.41775700  1
  Mg  Mg36  1  0.12819100  0.38565300  0.46109700  1
  Mg  Mg37  1  0.07920900  0.04638800  0.47649500  1
  Mg  Mg38  1  0.79500100  0.68630400  0.41767500  1
  Mg  Mg39  1  0.44507300  0.01464700  0.43559100  1
  Mg  Mg40  1  0.10033400  0.53076000  0.41713600  1
  Mg  Mg41  1  0.04791300  0.18990400  0.43261900  1
  Mg  Mg42  1  0.00126000  0.85044600  0.44880100  1
  Mg  Mg43  1  0.18208500  0.72578300  0.44523100  1
  Mg  Mg44  1  0.67868200  0.03449200  0.45115100  1
  Mg  Mg45  1  0.75040700  0.85910400  0.43505200  1
  Mg  Mg46  1  0.44414700  0.59496200  0.50392600  1
  Mg  Mg47  1  0.76672500  0.41091600  0.50157600  1
  Mg  Mg48  1  0.21721600  0.95975400  0.59163000  1
  Mg  Mg49  1  0.51695100  0.58949600  0.56599000  1
  Mg  Mg50  1  0.63341600  0.26625200  0.53497100  1
  Mg  Mg51  1  0.26332300  0.71962500  0.50749600  1
  Mg  Mg52  1  0.39749400  0.25550400  0.52010800  1
  Mg  Mg53  1  0.72845700  0.65591200  0.58673700  1
  Mg  Mg54  1  0.26619900  0.29902000  0.57623200  1
  Mg  Mg55  1  0.71199200  0.07915600  0.51775700  1
  Mg  Mg56  1  0.02819100  0.28565300  0.56109700  1
  Mg  Mg57  1  0.97920900  0.94638800  0.57649500  1
  Mg  Mg58  1  0.69500100  0.58630400  0.51767500  1
  Mg  Mg59  1  0.34507300  0.91464700  0.53559100  1
  Mg  Mg60  1  0.00033400  0.43076000  0.51713600  1
  Mg  Mg61  1  0.94791300  0.08990400  0.53261900  1
  Mg  Mg62  1  0.90126000  0.75044600  0.54880100  1
  Mg  Mg63  1  0.08208500  0.62578300  0.54523100  1
  Mg  Mg64  1  0.57868200  0.93449200  0.55115100  1
  Mg  Mg65  1  0.65040700  0.75910400  0.53505200  1
  Mg  Mg66  1  0.34414700  0.49496200  0.60392600  1
  Mg  Mg67  1  0.66672500  0.31091600  0.60157600  1
  Mg  Mg68  1  0.11721600  0.85975400  0.69163000  1
  Mg  Mg69  1  0.41695100  0.48949600  0.66599000  1
  Mg  Mg70  1  0.53341600  0.16625200  0.63497100  1
  Mg  Mg71  1  0.16332300  0.61962500  0.60749600  1
  Mg  Mg72  1  0.29749400  0.15550400  0.62010800  1
  Mg  Mg73  1  0.62845700  0.55591200  0.68673700  1
  Mg  Mg74  1  0.16619900  0.19902000  0.67623200  1
  Mg  Mg75  1  0.61199200  0.97915600  0.61775700  1
  Mg  Mg76  1  0.92819100  0.18565300  0.66109700  1
  Mg  Mg77  1  0.87920900  0.84638800  0.67649500  1
  Mg  Mg78  1  0.59500100  0.48630400  0.61767500  1
  Mg  Mg79  1  0.24507300  0.81464700  0.63559100  1
  Mg  Mg80  1  0.90033400  0.33076000  0.61713600  1
  Mg  Mg81  1  0.84791300  0.98990400  0.63261900  1
  Mg  Mg82  1  0.80126000  0.65044600  0.64880100  1
  Mg  Mg83  1  0.98208500  0.52578300  0.64523100  1
  Mg  Mg84  1  0.47868200  0.83449200  0.65115100  1
  Mg  Mg85  1  0.55040700  0.65910400  0.63505200  1
  Mg  Mg86  1  0.24414700  0.39496200  0.70392600  1
  Mg  Mg87  1  0.56672500  0.21091600  0.70157600  1
  Mg  Mg88  1  0.01721600  0.75975400  0.79163000  1
  Mg  Mg89  1  0.31695100  0.38949600  0.76599000  1
  Mg  Mg90  1  0.43341600  0.06625200  0.73497100  1
  Mg  Mg91  1  0.06332300  0.51962500  0.70749600  1
  Mg  Mg92  1  0.19749400  0.05550400  0.72010800  1
  Mg  Mg93  1  0.52845700  0.45591200  0.78673700  1
  Mg  Mg94  1  0.06619900  0.09902000  0.77623200  1
  Mg  Mg95  1  0.51199200  0.87915600  0.71775700  1
  Mg  Mg96  1  0.82819100  0.08565300  0.76109700  1
  Mg  Mg97  1  0.77920900  0.74638800  0.77649500  1
  Mg  Mg98  1  0.49500100  0.38630400  0.71767500  1
  Mg  Mg99  1  0.14507300  0.71464700  0.73559100  1
  Mg  Mg100  1  0.80033400  0.23076000  0.71713600  1
  Mg  Mg101  1  0.74791300  0.88990400  0.73261900  1
  Mg  Mg102  1  0.70126000  0.55044600  0.74880100  1
  Mg  Mg103  1  0.88208500  0.42578300  0.74523100  1
  Mg  Mg104  1  0.37868200  0.73449200  0.75115100  1
  Mg  Mg105  1  0.45040700  0.55910400  0.73505200  1
  Zn  Zn106  1  0.76981000  0.51289400  0.27846300  1
  Zn  Zn107  1  0.97486200  0.75649200  0.25996300  1
  Zn  Zn108  1  0.78875400  0.67986200  0.26967400  1
  Zn  Zn109  1  0.07559800  0.33251300  0.27426400  1
  Zn  Zn110  1  0.29271300  0.78065200  0.28132200  1
  Zn  Zn111  1  0.73524000  0.33730500  0.28488600  1
  Zn  Zn112  1  0.46924500  0.76284800  0.26069600  1
  Zn  Zn113  1  0.60216800  0.90655200  0.25571100  1
  Zn  Zn114  1  0.60590000  0.40935700  0.25610900  1
  Zn  Zn115  1  0.71487000  0.17367400  0.29301600  1
  Zn  Zn116  1  0.87054600  0.08891600  0.29276400  1
  Zn  Zn117  1  0.55269500  0.06475600  0.27140500  1
  Zn  Zn118  1  0.11016800  0.50810300  0.26784200  1
  Zn  Zn119  1  0.05665300  0.16554500  0.28305300  1
  Zn  Zn120  1  0.23950800  0.43605000  0.29661800  1
  Zn  Zn121  1  0.42270400  0.42270400  0.27636400  1
  Zn  Zn122  1  0.13053700  0.67173300  0.25971100  1
  Zn  Zn123  1  0.92270400  0.42270400  0.27636400  1
  Zn  Zn124  1  0.37616200  0.08256000  0.29203100  1
  Zn  Zn125  1  0.24323900  0.93885500  0.29701600  1
  Zn  Zn126  1  0.66981000  0.41289400  0.37846300  1
  Zn  Zn127  1  0.87486200  0.65649200  0.35996300  1
  Zn  Zn128  1  0.39467900  0.54394300  0.31797700  1
  Zn  Zn129  1  0.01030700  0.11388600  0.33349200  1
  Zn  Zn130  1  0.05918000  0.45737900  0.31845300  1
  Zn  Zn131  1  0.68875400  0.57986200  0.36967400  1
  Zn  Zn132  1  0.37270400  0.37270400  0.32636400  1
  Zn  Zn133  1  0.97559800  0.23251300  0.37426400  1
  Zn  Zn134  1  0.19271300  0.68065200  0.38132200  1
  Zn  Zn135  1  0.63524000  0.23730500  0.38488600  1
  Zn  Zn136  1  0.36924500  0.66284800  0.36069600  1
  Zn  Zn137  1  0.50216800  0.80655200  0.35571100  1
  Zn  Zn138  1  0.50590000  0.30935700  0.35610900  1
  Zn  Zn139  1  0.61487000  0.07367400  0.39301600  1
  Zn  Zn140  1  0.77054600  0.98891600  0.39276400  1
  Zn  Zn141  1  0.45269500  0.96475600  0.37140500  1
  Zn  Zn142  1  0.63753500  0.94889600  0.34982900  1
  Zn  Zn143  1  0.01016800  0.40810300  0.36784200  1
  Zn  Zn144  1  0.95665300  0.06554500  0.38305300  1
  Zn  Zn145  1  0.13950800  0.33605000  0.39661800  1
  Zn  Zn146  1  0.10787300  0.79651200  0.30289800  1
  Zn  Zn147  1  0.68622800  0.28802900  0.33427500  1
  Zn  Zn148  1  0.32270400  0.32270400  0.37636400  1
  Zn  Zn149  1  0.55596400  0.64337600  0.34022900  1
  Zn  Zn150  1  0.41816900  0.71380300  0.31026700  1
  Zn  Zn151  1  0.68888600  0.99578700  0.30111900  1
  Zn  Zn152  1  0.18944400  0.10203100  0.31249900  1
  Zn  Zn153  1  0.05652100  0.74962100  0.35160800  1
  Zn  Zn154  1  0.03053700  0.57173300  0.35971100  1
  Zn  Zn155  1  0.32723900  0.03160500  0.34246000  1
  Zn  Zn156  1  0.73510100  0.63152200  0.31923500  1
  Zn  Zn157  1  0.82270400  0.32270400  0.37636400  1
  Zn  Zn158  1  0.27616200  0.98256000  0.39203100  1
  Zn  Zn159  1  0.14323900  0.83885500  0.39701600  1
  Zn  Zn160  1  0.35072900  0.20146500  0.33475000  1
  Zn  Zn161  1  0.56981000  0.31289400  0.47846300  1
  Zn  Zn162  1  0.77486200  0.55649200  0.45996300  1
  Zn  Zn163  1  0.29467900  0.44394300  0.41797700  1
  Zn  Zn164  1  0.91030700  0.01388600  0.43349200  1
  Zn  Zn165  1  0.95918000  0.35737900  0.41845300  1
  Zn  Zn166  1  0.58875400  0.47986200  0.46967400  1
  Zn  Zn167  1  0.27270400  0.27270400  0.42636400  1
  Zn  Zn168  1  0.87559800  0.13251300  0.47426400  1
  Zn  Zn169  1  0.09271300  0.58065200  0.48132200  1
  Zn  Zn170  1  0.53524000  0.13730500  0.48488600  1
  Zn  Zn171  1  0.26924500  0.56284800  0.46069600  1
  Zn  Zn172  1  0.40216800  0.70655200  0.45571100  1
  Zn  Zn173  1  0.40590000  0.20935700  0.45610900  1
  Zn  Zn174  1  0.51487000  0.97367400  0.49301600  1
  Zn  Zn175  1  0.67054600  0.88891600  0.49276400  1
  Zn  Zn176  1  0.35269500  0.86475600  0.47140500  1
  Zn  Zn177  1  0.53753500  0.84889600  0.44982900  1
  Zn  Zn178  1  0.91016800  0.30810300  0.46784200  1
  Zn  Zn179  1  0.85665300  0.96554500  0.48305300  1
  Zn  Zn180  1  0.03950800  0.23605000  0.49661800  1
  Zn  Zn181  1  0.00787300  0.69651200  0.40289800  1
  Zn  Zn182  1  0.58622800  0.18802900  0.43427500  1
  Zn  Zn183  1  0.22270400  0.22270400  0.47636400  1
  Zn  Zn184  1  0.45596400  0.54337600  0.44022900  1
  Zn  Zn185  1  0.31816900  0.61380300  0.41026700  1
  Zn  Zn186  1  0.58888600  0.89578700  0.40111900  1
  Zn  Zn187  1  0.08944400  0.00203100  0.41249900  1
  Zn  Zn188  1  0.95652100  0.64962100  0.45160800  1
  Zn  Zn189  1  0.93053700  0.47173300  0.45971100  1
  Zn  Zn190  1  0.22723900  0.93160500  0.44246000  1
  Zn  Zn191  1  0.63510100  0.53152200  0.41923500  1
  Zn  Zn192  1  0.72270400  0.22270400  0.47636400  1
  Zn  Zn193  1  0.17616200  0.88256000  0.49203100  1
  Zn  Zn194  1  0.04323900  0.73885500  0.49701600  1
  Zn  Zn195  1  0.25072900  0.10146500  0.43475000  1
  Zn  Zn196  1  0.46981000  0.21289400  0.57846300  1
  Zn  Zn197  1  0.67486200  0.45649200  0.55996300  1
  Zn  Zn198  1  0.19467900  0.34394300  0.51797700  1
  Zn  Zn199  1  0.81030700  0.91388600  0.53349200  1
  Zn  Zn200  1  0.85918000  0.25737900  0.51845300  1
  Zn  Zn201  1  0.48875400  0.37986200  0.56967400  1
  Zn  Zn202  1  0.17270400  0.17270400  0.52636400  1
  Zn  Zn203  1  0.77559800  0.03251300  0.57426400  1
  Zn  Zn204  1  0.99271300  0.48065200  0.58132200  1
  Zn  Zn205  1  0.43524000  0.03730500  0.58488600  1
  Zn  Zn206  1  0.16924500  0.46284800  0.56069600  1
  Zn  Zn207  1  0.30216800  0.60655200  0.55571100  1
  Zn  Zn208  1  0.30590000  0.10935700  0.55610900  1
  Zn  Zn209  1  0.41487000  0.87367400  0.59301600  1
  Zn  Zn210  1  0.57054600  0.78891600  0.59276400  1
  Zn  Zn211  1  0.25269500  0.76475600  0.57140500  1
  Zn  Zn212  1  0.43753500  0.74889600  0.54982900  1
  Zn  Zn213  1  0.81016800  0.20810300  0.56784200  1
  Zn  Zn214  1  0.75665300  0.86554500  0.58305300  1
  Zn  Zn215  1  0.93950800  0.13605000  0.59661800  1
  Zn  Zn216  1  0.90787300  0.59651200  0.50289800  1
  Zn  Zn217  1  0.48622800  0.08802900  0.53427500  1
  Zn  Zn218  1  0.12270400  0.12270400  0.57636400  1
  Zn  Zn219  1  0.35596400  0.44337600  0.54022900  1
  Zn  Zn220  1  0.21816900  0.51380300  0.51026700  1
  Zn  Zn221  1  0.48888600  0.79578700  0.50111900  1
  Zn  Zn222  1  0.98944400  0.90203100  0.51249900  1
  Zn  Zn223  1  0.85652100  0.54962100  0.55160800  1
  Zn  Zn224  1  0.83053700  0.37173300  0.55971100  1
  Zn  Zn225  1  0.12723900  0.83160500  0.54246000  1
  Zn  Zn226  1  0.53510100  0.43152200  0.51923500  1
  Zn  Zn227  1  0.62270400  0.12270400  0.57636400  1
  Zn  Zn228  1  0.07616200  0.78256000  0.59203100  1
  Zn  Zn229  1  0.94323900  0.63885500  0.59701600  1
  Zn  Zn230  1  0.15072900  0.00146500  0.53475000  1
  Zn  Zn231  1  0.36981000  0.11289400  0.67846300  1
  Zn  Zn232  1  0.57486200  0.35649200  0.65996300  1
  Zn  Zn233  1  0.09467900  0.24394300  0.61797700  1
  Zn  Zn234  1  0.71030700  0.81388600  0.63349200  1
  Zn  Zn235  1  0.75918000  0.15737900  0.61845300  1
  Zn  Zn236  1  0.38875400  0.27986200  0.66967400  1
  Zn  Zn237  1  0.07270400  0.07270400  0.62636400  1
  Zn  Zn238  1  0.67559800  0.93251300  0.67426400  1
  Zn  Zn239  1  0.89271300  0.38065200  0.68132200  1
  Zn  Zn240  1  0.33524000  0.93730500  0.68488600  1
  Zn  Zn241  1  0.06924500  0.36284800  0.66069600  1
  Zn  Zn242  1  0.20216800  0.50655200  0.65571100  1
  Zn  Zn243  1  0.20590000  0.00935700  0.65610900  1
  Zn  Zn244  1  0.31487000  0.77367400  0.69301600  1
  Zn  Zn245  1  0.47054600  0.68891600  0.69276400  1
  Zn  Zn246  1  0.15269500  0.66475600  0.67140500  1
  Zn  Zn247  1  0.33753500  0.64889600  0.64982900  1
  Zn  Zn248  1  0.71016800  0.10810300  0.66784200  1
  Zn  Zn249  1  0.65665300  0.76554500  0.68305300  1
  Zn  Zn250  1  0.83950800  0.03605000  0.69661800  1
  Zn  Zn251  1  0.80787300  0.49651200  0.60289800  1
  Zn  Zn252  1  0.38622800  0.98802900  0.63427500  1
  Zn  Zn253  1  0.02270400  0.02270400  0.67636400  1
  Zn  Zn254  1  0.25596400  0.34337600  0.64022900  1
  Zn  Zn255  1  0.11816900  0.41380300  0.61026700  1
  Zn  Zn256  1  0.38888600  0.69578700  0.60111900  1
  Zn  Zn257  1  0.88944400  0.80203100  0.61249900  1
  Zn  Zn258  1  0.75652100  0.44962100  0.65160800  1
  Zn  Zn259  1  0.73053700  0.27173300  0.65971100  1
  Zn  Zn260  1  0.02723900  0.73160500  0.64246000  1
  Zn  Zn261  1  0.43510100  0.33152200  0.61923500  1
  Zn  Zn262  1  0.52270400  0.02270400  0.67636400  1
  Zn  Zn263  1  0.97616200  0.68256000  0.69203100  1
  Zn  Zn264  1  0.84323900  0.53885500  0.69701600  1
  Zn  Zn265  1  0.05072900  0.90146500  0.63475000  1
  Zn  Zn266  1  0.26981000  0.01289400  0.77846300  1
  Zn  Zn267  1  0.47486200  0.25649200  0.75996300  1
  Zn  Zn268  1  0.99467900  0.14394300  0.71797700  1
  Zn  Zn269  1  0.61030700  0.71388600  0.73349200  1
  Zn  Zn270  1  0.65918000  0.05737900  0.71845300  1
  Zn  Zn271  1  0.28875400  0.17986200  0.76967400  1
  Zn  Zn272  1  0.97270400  0.97270400  0.72636400  1
  Zn  Zn273  1  0.57559800  0.83251300  0.77426400  1
  Zn  Zn274  1  0.79271300  0.28065200  0.78132200  1
  Zn  Zn275  1  0.23524000  0.83730500  0.78488600  1
  Zn  Zn276  1  0.96924500  0.26284800  0.76069600  1
  Zn  Zn277  1  0.10216800  0.40655200  0.75571100  1
  Zn  Zn278  1  0.10590000  0.90935700  0.75610900  1
  Zn  Zn279  1  0.21487000  0.67367400  0.79301600  1
  Zn  Zn280  1  0.37054600  0.58891600  0.79276400  1
  Zn  Zn281  1  0.05269500  0.56475600  0.77140500  1
  Zn  Zn282  1  0.23753500  0.54889600  0.74982900  1
  Zn  Zn283  1  0.61016800  0.00810300  0.76784200  1
  Zn  Zn284  1  0.55665300  0.66554500  0.78305300  1
  Zn  Zn285  1  0.73950800  0.93605000  0.79661800  1
  Zn  Zn286  1  0.70787300  0.39651200  0.70289800  1
  Zn  Zn287  1  0.28622800  0.88802900  0.73427500  1
  Zn  Zn288  1  0.92270400  0.92270400  0.77636400  1
  Zn  Zn289  1  0.15596400  0.24337600  0.74022900  1
  Zn  Zn290  1  0.01816900  0.31380300  0.71026700  1
  Zn  Zn291  1  0.28888600  0.59578700  0.70111900  1
  Zn  Zn292  1  0.78944400  0.70203100  0.71249900  1
  Zn  Zn293  1  0.65652100  0.34962100  0.75160800  1
  Zn  Zn294  1  0.63053700  0.17173300  0.75971100  1
  Zn  Zn295  1  0.92723900  0.63160500  0.74246000  1
  Zn  Zn296  1  0.33510100  0.23152200  0.71923500  1
  Zn  Zn297  1  0.42270400  0.92270400  0.77636400  1
  Zn  Zn298  1  0.87616200  0.58256000  0.79203100  1
  Zn  Zn299  1  0.74323900  0.43885500  0.79701600  1
  Zn  Zn300  1  0.95072900  0.80146500  0.73475000  1
