# generated using pymatgen
data_Mg9Si5
_symmetry_space_group_name_H-M   'P 1'
_cell_length_a   12.41651900
_cell_length_b   14.27249660
_cell_length_c   44.74766500
_cell_angle_alpha   90.16648621
_cell_angle_beta   90.00000000
_cell_angle_gamma   64.21593671
_symmetry_Int_Tables_number   1
_chemical_formula_structural   Mg9Si5
_chemical_formula_sum   'Mg144 Si80'
_cell_volume   7140.40101402
_cell_formula_units_Z   16
loop_
 _symmetry_equiv_pos_site_id
 _symmetry_equiv_pos_as_xyz
  1  'x, y, z'
loop_
 _atom_site_type_symbol
 _atom_site_label
 _atom_site_symmetry_multiplicity
 _atom_site_fract_x
 _atom_site_fract_y
 _atom_site_fract_z
 _atom_site_occupancy
  Mg  Mg0  1  0.69374300  0.01784800  0.25741700  1
  Mg  Mg1  1  0.28367100  0.51705800  0.25820700  1
  Mg  Mg2  1  0.37178400  0.57736600  0.19789900  1
  Mg  Mg3  1  0.32087100  0.03732500  0.23794000  1
  Mg  Mg4  1  0.94744500  0.02070900  0.25455600  1
  Mg  Mg5  1  0.53737300  0.51992000  0.25534500  1
  Mg  Mg6  1  0.84471900  0.90522900  0.20412100  1
  Mg  Mg7  1  0.25479100  0.40601900  0.20333200  1
  Mg  Mg8  1  0.16667800  0.34571100  0.26363900  1
  Mg  Mg9  1  0.21759100  0.88575200  0.22359800  1
  Mg  Mg10  1  0.59101600  0.90236700  0.20698300  1
  Mg  Mg11  1  0.00108800  0.40315700  0.20619300  1
  Mg  Mg12  1  0.81909700  0.70781400  0.23449400  1
  Mg  Mg13  1  0.43534500  0.20152300  0.24078400  1
  Mg  Mg14  1  0.03759800  0.19859800  0.24370900  1
  Mg  Mg15  1  0.50086300  0.72447800  0.21782900  1
  Mg  Mg16  1  0.10311700  0.72155400  0.22075400  1
  Mg  Mg17  1  0.71936500  0.21526300  0.22704500  1
  Mg  Mg18  1  0.23220500  0.94092500  0.33434000  1
  Mg  Mg19  1  0.82213300  0.44013500  0.33513000  1
  Mg  Mg20  1  0.91024500  0.50044300  0.27482200  1
  Mg  Mg21  1  0.85933200  0.96040200  0.31486300  1
  Mg  Mg22  1  0.48590700  0.94378600  0.33147900  1
  Mg  Mg23  1  0.07583500  0.44299700  0.33226900  1
  Mg  Mg24  1  0.38318000  0.82830600  0.28104400  1
  Mg  Mg25  1  0.79325200  0.32909500  0.28025500  1
  Mg  Mg26  1  0.70513900  0.26878800  0.34056200  1
  Mg  Mg27  1  0.75605200  0.80882900  0.30052100  1
  Mg  Mg28  1  0.12947800  0.82544400  0.28390600  1
  Mg  Mg29  1  0.53955000  0.32623400  0.28311600  1
  Mg  Mg30  1  0.35755800  0.63089100  0.31141700  1
  Mg  Mg31  1  0.97380600  0.12460000  0.31770800  1
  Mg  Mg32  1  0.57606000  0.12167500  0.32063200  1
  Mg  Mg33  1  0.03932500  0.64755500  0.29475200  1
  Mg  Mg34  1  0.64157800  0.64463100  0.29767700  1
  Mg  Mg35  1  0.25782600  0.13834000  0.30396800  1
  Mg  Mg36  1  0.77066600  0.86400200  0.41126300  1
  Mg  Mg37  1  0.36059400  0.36321200  0.41205300  1
  Mg  Mg38  1  0.44870700  0.42352000  0.35174600  1
  Mg  Mg39  1  0.39779400  0.88347900  0.39178600  1
  Mg  Mg40  1  0.02436800  0.86686300  0.40840200  1
  Mg  Mg41  1  0.61429600  0.36607400  0.40919200  1
  Mg  Mg42  1  0.92164200  0.75138300  0.35796700  1
  Mg  Mg43  1  0.33171400  0.25217200  0.35717800  1
  Mg  Mg44  1  0.24360100  0.19186500  0.41748500  1
  Mg  Mg45  1  0.29451400  0.73190600  0.37744400  1
  Mg  Mg46  1  0.66794000  0.74852100  0.36082900  1
  Mg  Mg47  1  0.07801200  0.24931100  0.36003900  1
  Mg  Mg48  1  0.89602000  0.55396800  0.38834000  1
  Mg  Mg49  1  0.51226800  0.04767700  0.39463100  1
  Mg  Mg50  1  0.11452100  0.04475200  0.39755500  1
  Mg  Mg51  1  0.57778700  0.57063200  0.37167500  1
  Mg  Mg52  1  0.18004000  0.56770800  0.37460000  1
  Mg  Mg53  1  0.79628800  0.06141700  0.38089100  1
  Mg  Mg54  1  0.30912800  0.78707900  0.48818600  1
  Mg  Mg55  1  0.89905600  0.28628900  0.48897600  1
  Mg  Mg56  1  0.98716900  0.34659700  0.42866900  1
  Mg  Mg57  1  0.93625500  0.80655600  0.46870900  1
  Mg  Mg58  1  0.56283000  0.78994000  0.48532500  1
  Mg  Mg59  1  0.15275800  0.28915100  0.48611500  1
  Mg  Mg60  1  0.46010300  0.67446000  0.43489000  1
  Mg  Mg61  1  0.87017500  0.17524900  0.43410100  1
  Mg  Mg62  1  0.78206200  0.11494200  0.49440800  1
  Mg  Mg63  1  0.83297600  0.65498300  0.45436700  1
  Mg  Mg64  1  0.20640100  0.67159800  0.43775200  1
  Mg  Mg65  1  0.61647300  0.17238800  0.43696200  1
  Mg  Mg66  1  0.43448100  0.47704500  0.46526300  1
  Mg  Mg67  1  0.05072900  0.97075400  0.47155400  1
  Mg  Mg68  1  0.65298300  0.96782900  0.47447800  1
  Mg  Mg69  1  0.11624800  0.49370900  0.44859800  1
  Mg  Mg70  1  0.71850100  0.49078400  0.45152300  1
  Mg  Mg71  1  0.33474900  0.98449400  0.45781400  1
  Mg  Mg72  1  0.84758900  0.71015600  0.56511000  1
  Mg  Mg73  1  0.43751700  0.20936600  0.56589900  1
  Mg  Mg74  1  0.52563000  0.26967400  0.50559200  1
  Mg  Mg75  1  0.47471700  0.72963300  0.54563300  1
  Mg  Mg76  1  0.10129100  0.71301700  0.56224800  1
  Mg  Mg77  1  0.69121900  0.21222800  0.56303800  1
  Mg  Mg78  1  0.99856500  0.59753700  0.51181400  1
  Mg  Mg79  1  0.40863700  0.09832600  0.51102400  1
  Mg  Mg80  1  0.32052400  0.03801900  0.57133100  1
  Mg  Mg81  1  0.37143700  0.57806000  0.53129100  1
  Mg  Mg82  1  0.74486300  0.59467500  0.51467500  1
  Mg  Mg83  1  0.15493500  0.09546500  0.51388500  1
  Mg  Mg84  1  0.97294300  0.40012200  0.54218600  1
  Mg  Mg85  1  0.58919100  0.89383100  0.54847700  1
  Mg  Mg86  1  0.19144400  0.89090600  0.55140200  1
  Mg  Mg87  1  0.65471000  0.41678600  0.52552200  1
  Mg  Mg88  1  0.25696300  0.41386100  0.52844600  1
  Mg  Mg89  1  0.87321100  0.90757100  0.53473700  1
  Mg  Mg90  1  0.38605100  0.63323300  0.64203300  1
  Mg  Mg91  1  0.97597900  0.13244300  0.64282200  1
  Mg  Mg92  1  0.06409200  0.19275100  0.58251500  1
  Mg  Mg93  1  0.01317800  0.65271000  0.62255600  1
  Mg  Mg94  1  0.63975300  0.63609400  0.63917100  1
  Mg  Mg95  1  0.22968100  0.13530400  0.63996100  1
  Mg  Mg96  1  0.53702600  0.52061400  0.58873700  1
  Mg  Mg97  1  0.94709800  0.02140300  0.58794700  1
  Mg  Mg98  1  0.85898500  0.96109600  0.64825400  1
  Mg  Mg99  1  0.90989900  0.50113700  0.60821400  1
  Mg  Mg100  1  0.28332400  0.51775200  0.59159800  1
  Mg  Mg101  1  0.69339600  0.01854200  0.59080800  1
  Mg  Mg102  1  0.51140400  0.32319900  0.61910900  1
  Mg  Mg103  1  0.12765300  0.81690800  0.62540000  1
  Mg  Mg104  1  0.72990600  0.81398300  0.62832500  1
  Mg  Mg105  1  0.19317100  0.33986300  0.60244500  1
  Mg  Mg106  1  0.79542400  0.33693800  0.60536900  1
  Mg  Mg107  1  0.41167200  0.83064800  0.61166000  1
  Mg  Mg108  1  0.92451200  0.55631000  0.71895600  1
  Mg  Mg109  1  0.51444000  0.05552000  0.71974500  1
  Mg  Mg110  1  0.60255300  0.11582700  0.65943800  1
  Mg  Mg111  1  0.55164000  0.57578700  0.69947900  1
  Mg  Mg112  1  0.17821400  0.55917100  0.71609400  1
  Mg  Mg113  1  0.76814200  0.05838100  0.71688400  1
  Mg  Mg114  1  0.07548800  0.44369000  0.66566000  1
  Mg  Mg115  1  0.48556000  0.94448000  0.66487000  1
  Mg  Mg116  1  0.39744700  0.88417300  0.72517800  1
  Mg  Mg117  1  0.44836000  0.42421300  0.68513700  1
  Mg  Mg118  1  0.82178600  0.44082900  0.66852100  1
  Mg  Mg119  1  0.23185800  0.94161900  0.66773100  1
  Mg  Mg120  1  0.04986600  0.24627600  0.69603200  1
  Mg  Mg121  1  0.66611400  0.73998500  0.70232300  1
  Mg  Mg122  1  0.26836700  0.73706000  0.70524800  1
  Mg  Mg123  1  0.73163300  0.26294000  0.67936800  1
  Mg  Mg124  1  0.33388600  0.26001500  0.68229200  1
  Mg  Mg125  1  0.95013400  0.75372400  0.68858300  1
  Mg  Mg126  1  0.46297400  0.47938600  0.79587900  1
  Mg  Mg127  1  0.05290200  0.97859700  0.79666800  1
  Mg  Mg128  1  0.14101500  0.03890400  0.73636100  1
  Mg  Mg129  1  0.09010100  0.49886300  0.77640200  1
  Mg  Mg130  1  0.71667600  0.48224800  0.79301700  1
  Mg  Mg131  1  0.30660400  0.98145800  0.79380700  1
  Mg  Mg132  1  0.61394900  0.36676700  0.74258300  1
  Mg  Mg133  1  0.02402100  0.86755700  0.74179300  1
  Mg  Mg134  1  0.93590800  0.80724900  0.80210100  1
  Mg  Mg135  1  0.98682200  0.34729000  0.76206000  1
  Mg  Mg136  1  0.36024700  0.36390600  0.74544400  1
  Mg  Mg137  1  0.77031900  0.86469600  0.74465500  1
  Mg  Mg138  1  0.58832800  0.16935200  0.77295500  1
  Mg  Mg139  1  0.20457600  0.66306200  0.77924600  1
  Mg  Mg140  1  0.80682900  0.66013700  0.78217100  1
  Mg  Mg141  1  0.27009400  0.18601700  0.75629100  1
  Mg  Mg142  1  0.87234700  0.18309200  0.75921600  1
  Mg  Mg143  1  0.48859600  0.67680100  0.76550600  1
  Si  Si144  1  0.58473500  0.83053100  0.26151900  1
  Si  Si145  1  0.81550400  0.36899200  0.22305700  1
  Si  Si146  1  0.95372700  0.09254600  0.20002000  1
  Si  Si147  1  0.72295800  0.55408500  0.23848100  1
  Si  Si148  1  0.32051300  0.69230800  0.25000000  1
  Si  Si149  1  0.21794900  0.23076900  0.21153800  1
  Si  Si150  1  0.06219600  0.54227500  0.23749700  1
  Si  Si151  1  0.62629800  0.08073700  0.19903600  1
  Si  Si152  1  0.47626600  0.38080200  0.22404100  1
  Si  Si153  1  0.91216300  0.84234000  0.26250300  1
  Si  Si154  1  0.12319600  0.75360800  0.33844200  1
  Si  Si155  1  0.35396500  0.29206900  0.29998000  1
  Si  Si156  1  0.49218800  0.01562300  0.27694300  1
  Si  Si157  1  0.26141900  0.47716200  0.31540500  1
  Si  Si158  1  0.85897400  0.61538500  0.32692300  1
  Si  Si159  1  0.75641000  0.15384600  0.28846200  1
  Si  Si160  1  0.60065700  0.46535200  0.31442000  1
  Si  Si161  1  0.16476000  0.00381400  0.27595900  1
  Si  Si162  1  0.01472700  0.30387800  0.30096400  1
  Si  Si163  1  0.45062500  0.76541700  0.33942600  1
  Si  Si164  1  0.66165800  0.67668400  0.41536500  1
  Si  Si165  1  0.89242700  0.21514600  0.37690300  1
  Si  Si166  1  0.03065000  0.93870000  0.35386600  1
  Si  Si167  1  0.79988100  0.40023900  0.39232800  1
  Si  Si168  1  0.39743600  0.53846200  0.40384600  1
  Si  Si169  1  0.29487200  0.07692300  0.36538500  1
  Si  Si170  1  0.13911900  0.38842900  0.39134300  1
  Si  Si171  1  0.70322100  0.92689100  0.35288200  1
  Si  Si172  1  0.55318900  0.22695500  0.37788700  1
  Si  Si173  1  0.98908600  0.68849400  0.41634900  1
  Si  Si174  1  0.20011900  0.59976100  0.49228800  1
  Si  Si175  1  0.43088900  0.13822300  0.45382600  1
  Si  Si176  1  0.56911100  0.86177700  0.43078900  1
  Si  Si177  1  0.33834200  0.32331600  0.46925100  1
  Si  Si178  1  0.93589700  0.46153800  0.48076900  1
  Si  Si179  1  0.83333300  0.00000000  0.44230800  1
  Si  Si180  1  0.67758000  0.31150600  0.46826700  1
  Si  Si181  1  0.24168300  0.84996800  0.42980500  1
  Si  Si182  1  0.09165100  0.15003200  0.45481000  1
  Si  Si183  1  0.52754800  0.61157100  0.49327200  1
  Si  Si184  1  0.73858100  0.52283800  0.56921100  1
  Si  Si185  1  0.96935000  0.06130000  0.53074900  1
  Si  Si186  1  0.10757300  0.78485400  0.50771200  1
  Si  Si187  1  0.87680400  0.24639200  0.54617400  1
  Si  Si188  1  0.47435900  0.38461500  0.55769200  1
  Si  Si189  1  0.37179500  0.92307700  0.51923100  1
  Si  Si190  1  0.21604200  0.23458300  0.54519000  1
  Si  Si191  1  0.78014400  0.77304500  0.50672800  1
  Si  Si192  1  0.63011200  0.07310900  0.53173300  1
  Si  Si193  1  0.06600900  0.53464800  0.57019500  1
  Si  Si194  1  0.27704200  0.44591500  0.64613400  1
  Si  Si195  1  0.50781200  0.98437700  0.60767200  1
  Si  Si196  1  0.64603500  0.70793100  0.58463500  1
  Si  Si197  1  0.41526500  0.16946900  0.62309700  1
  Si  Si198  1  0.01282100  0.30769200  0.63461500  1
  Si  Si199  1  0.91025600  0.84615400  0.59615400  1
  Si  Si200  1  0.75450300  0.15766000  0.62211300  1
  Si  Si201  1  0.31860600  0.69612200  0.58365100  1
  Si  Si202  1  0.16857400  0.99618600  0.60865700  1
  Si  Si203  1  0.60447100  0.45772500  0.64711800  1
  Si  Si204  1  0.81550400  0.36899200  0.72305700  1
  Si  Si205  1  0.04627300  0.90745400  0.68459500  1
  Si  Si206  1  0.18449600  0.63100800  0.66155800  1
  Si  Si207  1  0.95372700  0.09254600  0.70002000  1
  Si  Si208  1  0.55128200  0.23076900  0.71153800  1
  Si  Si209  1  0.44871800  0.76923100  0.67307700  1
  Si  Si210  1  0.29296500  0.08073700  0.69903600  1
  Si  Si211  1  0.85706700  0.61919800  0.66057400  1
  Si  Si212  1  0.70703500  0.91926300  0.68558000  1
  Si  Si213  1  0.14293300  0.38080200  0.72404100  1
  Si  Si214  1  0.35396500  0.29206900  0.79998000  1
  Si  Si215  1  0.58473500  0.83053100  0.76151900  1
  Si  Si216  1  0.72295800  0.55408500  0.73848100  1
  Si  Si217  1  0.49218800  0.01562300  0.77694300  1
  Si  Si218  1  0.08974400  0.15384600  0.78846200  1
  Si  Si219  1  0.98717900  0.69230800  0.75000000  1
  Si  Si220  1  0.83142600  0.00381400  0.77595900  1
  Si  Si221  1  0.39552900  0.54227500  0.73749700  1
  Si  Si222  1  0.24549700  0.84234000  0.76250300  1
  Si  Si223  1  0.68139400  0.30387800  0.80096400  1
