# generated using pymatgen
data_Mg4Ag11
_symmetry_space_group_name_H-M   'P 1'
_cell_length_a   5.90771900
_cell_length_b   7.61306272
_cell_length_c   45.52089700
_cell_angle_alpha   89.28114441
_cell_angle_beta   90.00000000
_cell_angle_gamma   67.16995739
_symmetry_Int_Tables_number   1
_chemical_formula_structural   Mg4Ag11
_chemical_formula_sum   'Mg16 Ag44'
_cell_volume   1886.77654712
_cell_formula_units_Z   4
loop_
 _symmetry_equiv_pos_site_id
 _symmetry_equiv_pos_as_xyz
  1  'x, y, z'
loop_
 _atom_site_type_symbol
 _atom_site_label
 _atom_site_symmetry_multiplicity
 _atom_site_fract_x
 _atom_site_fract_y
 _atom_site_fract_z
 _atom_site_occupancy
  Mg  Mg0  1  0.47434900  0.05130100  0.25641000  1
  Mg  Mg1  1  0.17947800  0.64104500  0.24359000  1
  Mg  Mg2  1  0.24358000  0.51284000  0.33333300  1
  Mg  Mg3  1  0.94870800  0.10258300  0.32051300  1
  Mg  Mg4  1  0.01281100  0.97437800  0.41025600  1
  Mg  Mg5  1  0.71793900  0.56412200  0.39743600  1
  Mg  Mg6  1  0.78204200  0.43591700  0.48717900  1
  Mg  Mg7  1  0.48717000  0.02566000  0.47435900  1
  Mg  Mg8  1  0.55127300  0.89745500  0.56410300  1
  Mg  Mg9  1  0.25640100  0.48719900  0.55128200  1
  Mg  Mg10  1  0.32050300  0.35899300  0.64102600  1
  Mg  Mg11  1  0.02563100  0.94873700  0.62820500  1
  Mg  Mg12  1  0.08973400  0.82053200  0.71794900  1
  Mg  Mg13  1  0.79486200  0.41027500  0.70512800  1
  Mg  Mg14  1  0.85896500  0.28207000  0.79487200  1
  Mg  Mg15  1  0.56409300  0.87181400  0.78205100  1
  Ag  Ag16  1  0.97433500  0.05133100  0.25640600  1
  Ag  Ag17  1  0.67949200  0.64101500  0.24359400  1
  Ag  Ag18  1  0.74356500  0.51286900  0.33332900  1
  Ag  Ag19  1  0.85893100  0.78205600  0.29487400  1
  Ag  Ag20  1  0.35901400  0.78205600  0.29487400  1
  Ag  Ag21  1  0.06404400  0.37182900  0.28204900  1
  Ag  Ag22  1  0.56412700  0.37182900  0.28204900  1
  Ag  Ag23  1  0.44872300  0.10255400  0.32051700  1
  Ag  Ag24  1  0.51279600  0.97440800  0.41025200  1
  Ag  Ag25  1  0.62816200  0.24359400  0.37179700  1
  Ag  Ag26  1  0.12824400  0.24359400  0.37179700  1
  Ag  Ag27  1  0.83327500  0.83336700  0.35897200  1
  Ag  Ag28  1  0.33335800  0.83336700  0.35897200  1
  Ag  Ag29  1  0.21795400  0.56409200  0.39744000  1
  Ag  Ag30  1  0.28202700  0.43594600  0.48717500  1
  Ag  Ag31  1  0.39739200  0.70513200  0.44872000  1
  Ag  Ag32  1  0.89747500  0.70513200  0.44872000  1
  Ag  Ag33  1  0.60250600  0.29490600  0.43589500  1
  Ag  Ag34  1  0.10258800  0.29490600  0.43589500  1
  Ag  Ag35  1  0.98718500  0.02563000  0.47436300  1
  Ag  Ag36  1  0.05125800  0.89748500  0.56409800  1
  Ag  Ag37  1  0.16662300  0.16667100  0.52564300  1
  Ag  Ag38  1  0.66670600  0.16667100  0.52564300  1
  Ag  Ag39  1  0.37173700  0.75644400  0.51281800  1
  Ag  Ag40  1  0.87181900  0.75644400  0.51281800  1
  Ag  Ag41  1  0.75641600  0.48716900  0.55128600  1
  Ag  Ag42  1  0.82048800  0.35902300  0.64102100  1
  Ag  Ag43  1  0.93585400  0.62820900  0.60256600  1
  Ag  Ag44  1  0.43593700  0.62820900  0.60256600  1
  Ag  Ag45  1  0.14096700  0.21798300  0.58974100  1
  Ag  Ag46  1  0.64105000  0.21798300  0.58974100  1
  Ag  Ag47  1  0.52564600  0.94870700  0.62820900  1
  Ag  Ag48  1  0.58971900  0.82056200  0.71794400  1
  Ag  Ag49  1  0.70508500  0.08974800  0.67948900  1
  Ag  Ag50  1  0.20516700  0.08974800  0.67948900  1
  Ag  Ag51  1  0.91019800  0.67952100  0.66666500  1
  Ag  Ag52  1  0.41028100  0.67952100  0.66666500  1
  Ag  Ag53  1  0.29487700  0.41024600  0.70513200  1
  Ag  Ag54  1  0.35895000  0.28210000  0.79486800  1
  Ag  Ag55  1  0.47431600  0.55128600  0.75641200  1
  Ag  Ag56  1  0.97439800  0.55128600  0.75641200  1
  Ag  Ag57  1  0.67942900  0.14106000  0.74358800  1
  Ag  Ag58  1  0.17951200  0.14106000  0.74358800  1
  Ag  Ag59  1  0.06410800  0.87178400  0.78205600  1
