# generated using pymatgen
data_Ca9Mg5
_symmetry_space_group_name_H-M   'P 1'
_cell_length_a   3.89843619
_cell_length_b   9.27247136
_cell_length_c   47.92219200
_cell_angle_alpha   87.08164032
_cell_angle_beta   87.66886419
_cell_angle_gamma   77.86500989
_symmetry_Int_Tables_number   1
_chemical_formula_structural   Ca9Mg5
_chemical_formula_sum   'Ca18 Mg10'
_cell_volume   1690.59636584
_cell_formula_units_Z   2
loop_
 _symmetry_equiv_pos_site_id
 _symmetry_equiv_pos_as_xyz
  1  'x, y, z'
loop_
 _atom_site_type_symbol
 _atom_site_label
 _atom_site_symmetry_multiplicity
 _atom_site_fract_x
 _atom_site_fract_y
 _atom_site_fract_z
 _atom_site_occupancy
  Ca  Ca0  1  0.02573200  0.20532200  0.74321400  1
  Ca  Ca1  1  0.84239100  0.51676600  0.79845200  1
  Ca  Ca2  1  0.90073200  0.51782200  0.68071400  1
  Ca  Ca3  1  0.71739100  0.82926600  0.73595200  1
  Ca  Ca4  1  0.77573200  0.83032200  0.61821400  1
  Ca  Ca5  1  0.59239100  0.14176600  0.67345200  1
  Ca  Ca6  1  0.65073200  0.14282200  0.55571400  1
  Ca  Ca7  1  0.46739100  0.45426600  0.61095200  1
  Ca  Ca8  1  0.52573200  0.45532200  0.49321400  1
  Ca  Ca9  1  0.34239100  0.76676600  0.54845200  1
  Ca  Ca10  1  0.40073200  0.76782200  0.43071400  1
  Ca  Ca11  1  0.21739100  0.07926600  0.48595200  1
  Ca  Ca12  1  0.27573200  0.08032200  0.36821400  1
  Ca  Ca13  1  0.09239100  0.39176600  0.42345200  1
  Ca  Ca14  1  0.15073200  0.39282200  0.30571400  1
  Ca  Ca15  1  0.96739100  0.70426600  0.36095200  1
  Ca  Ca16  1  0.02573200  0.70532200  0.24321400  1
  Ca  Ca17  1  0.84239100  0.01676600  0.29845200  1
  Mg  Mg18  1  0.49656100  0.20479400  0.80208300  1
  Mg  Mg19  1  0.37156100  0.51729400  0.73958300  1
  Mg  Mg20  1  0.24656100  0.82979400  0.67708300  1
  Mg  Mg21  1  0.12156100  0.14229400  0.61458300  1
  Mg  Mg22  1  0.99656100  0.45479400  0.55208300  1
  Mg  Mg23  1  0.87156100  0.76729400  0.48958300  1
  Mg  Mg24  1  0.74656100  0.07979400  0.42708300  1
  Mg  Mg25  1  0.62156100  0.39229400  0.36458300  1
  Mg  Mg26  1  0.49656100  0.70479400  0.30208300  1
  Mg  Mg27  1  0.37156100  0.01729400  0.23958300  1
