# generated using pymatgen
data_Mg2Zn
_symmetry_space_group_name_H-M   'P 1'
_cell_length_a   5.81388121
_cell_length_b   7.92196437
_cell_length_c   41.46277500
_cell_angle_alpha   90.88177323
_cell_angle_beta   93.29618556
_cell_angle_gamma   95.99281037
_symmetry_Int_Tables_number   1
_chemical_formula_structural   Mg2Zn
_chemical_formula_sum   'Mg40 Zn20'
_cell_volume   1895.64749741
_cell_formula_units_Z   20
loop_
 _symmetry_equiv_pos_site_id
 _symmetry_equiv_pos_as_xyz
  1  'x, y, z'
loop_
 _atom_site_type_symbol
 _atom_site_label
 _atom_site_symmetry_multiplicity
 _atom_site_fract_x
 _atom_site_fract_y
 _atom_site_fract_z
 _atom_site_occupancy
  Mg  Mg0  1  0.27424300  0.42226000  0.22831400  1
  Mg  Mg1  1  0.19557000  0.81254600  0.24798200  1
  Mg  Mg2  1  0.92943000  0.62495400  0.18951800  1
  Mg  Mg3  1  0.85075700  0.01524000  0.20918600  1
  Mg  Mg4  1  0.02424300  0.48476000  0.29081400  1
  Mg  Mg5  1  0.94557000  0.87504600  0.31048200  1
  Mg  Mg6  1  0.67943000  0.68745400  0.25201800  1
  Mg  Mg7  1  0.60075700  0.07774000  0.27168600  1
  Mg  Mg8  1  0.77424300  0.54726000  0.35331400  1
  Mg  Mg9  1  0.69557000  0.93754600  0.37298200  1
  Mg  Mg10  1  0.42943000  0.74995400  0.31451800  1
  Mg  Mg11  1  0.35075700  0.14024000  0.33418600  1
  Mg  Mg12  1  0.52424300  0.60976000  0.41581400  1
  Mg  Mg13  1  0.44557000  0.00004600  0.43548200  1
  Mg  Mg14  1  0.17943000  0.81245400  0.37701800  1
  Mg  Mg15  1  0.10075700  0.20274000  0.39668600  1
  Mg  Mg16  1  0.27424300  0.67226000  0.47831400  1
  Mg  Mg17  1  0.19557000  0.06254600  0.49798200  1
  Mg  Mg18  1  0.92943000  0.87495400  0.43951800  1
  Mg  Mg19  1  0.85075700  0.26524000  0.45918600  1
  Mg  Mg20  1  0.02424300  0.73476000  0.54081400  1
  Mg  Mg21  1  0.94557000  0.12504600  0.56048200  1
  Mg  Mg22  1  0.67943000  0.93745400  0.50201800  1
  Mg  Mg23  1  0.60075700  0.32774000  0.52168600  1
  Mg  Mg24  1  0.77424300  0.79726000  0.60331400  1
  Mg  Mg25  1  0.69557000  0.18754600  0.62298200  1
  Mg  Mg26  1  0.42943000  0.99995400  0.56451800  1
  Mg  Mg27  1  0.35075700  0.39024000  0.58418600  1
  Mg  Mg28  1  0.52424300  0.85976000  0.66581400  1
  Mg  Mg29  1  0.44557000  0.25004600  0.68548200  1
  Mg  Mg30  1  0.17943000  0.06245400  0.62701800  1
  Mg  Mg31  1  0.10075700  0.45274000  0.64668600  1
  Mg  Mg32  1  0.27424300  0.92226000  0.72831400  1
  Mg  Mg33  1  0.19557000  0.31254600  0.74798200  1
  Mg  Mg34  1  0.92943000  0.12495400  0.68951800  1
  Mg  Mg35  1  0.85075700  0.51524000  0.70918600  1
  Mg  Mg36  1  0.02424300  0.98476000  0.79081400  1
  Mg  Mg37  1  0.94557000  0.37504600  0.81048200  1
  Mg  Mg38  1  0.67943000  0.18745400  0.75201800  1
  Mg  Mg39  1  0.60075700  0.57774000  0.77168600  1
  Zn  Zn40  1  0.36060600  0.09156800  0.20672400  1
  Zn  Zn41  1  0.76439400  0.34593200  0.23077600  1
  Zn  Zn42  1  0.11060600  0.15406800  0.26922400  1
  Zn  Zn43  1  0.51439400  0.40843200  0.29327600  1
  Zn  Zn44  1  0.86060600  0.21656800  0.33172400  1
  Zn  Zn45  1  0.26439400  0.47093200  0.35577600  1
  Zn  Zn46  1  0.61060600  0.27906800  0.39422400  1
  Zn  Zn47  1  0.01439400  0.53343200  0.41827600  1
  Zn  Zn48  1  0.36060600  0.34156800  0.45672400  1
  Zn  Zn49  1  0.76439400  0.59593200  0.48077600  1
  Zn  Zn50  1  0.11060600  0.40406800  0.51922400  1
  Zn  Zn51  1  0.51439400  0.65843200  0.54327600  1
  Zn  Zn52  1  0.86060600  0.46656800  0.58172400  1
  Zn  Zn53  1  0.26439400  0.72093200  0.60577600  1
  Zn  Zn54  1  0.61060600  0.52906800  0.64422400  1
  Zn  Zn55  1  0.01439400  0.78343200  0.66827600  1
  Zn  Zn56  1  0.36060600  0.59156800  0.70672400  1
  Zn  Zn57  1  0.76439400  0.84593200  0.73077600  1
  Zn  Zn58  1  0.11060600  0.65406800  0.76922400  1
  Zn  Zn59  1  0.51439400  0.90843200  0.79327600  1
