# generated using pymatgen
data_Ce20Mg181
_symmetry_space_group_name_H-M   'P 1'
_cell_length_a   14.43775526
_cell_length_b   14.43775501
_cell_length_c   45.98188600
_cell_angle_alpha   89.14134599
_cell_angle_beta   90.85865399
_cell_angle_gamma   103.42087140
_symmetry_Int_Tables_number   1
_chemical_formula_structural   Ce20Mg181
_chemical_formula_sum   'Ce20 Mg181'
_cell_volume   9321.41888714
_cell_formula_units_Z   1
loop_
 _symmetry_equiv_pos_site_id
 _symmetry_equiv_pos_as_xyz
  1  'x, y, z'
loop_
 _atom_site_type_symbol
 _atom_site_label
 _atom_site_symmetry_multiplicity
 _atom_site_fract_x
 _atom_site_fract_y
 _atom_site_fract_z
 _atom_site_occupancy
  Ce  Ce0  1  0.68046200  0.31953800  0.36052600  1
  Ce  Ce1  1  0.48046200  0.51953800  0.31052600  1
  Ce  Ce2  1  0.34712900  0.98620400  0.36052600  1
  Ce  Ce3  1  0.81379600  0.85287100  0.31052600  1
  Ce  Ce4  1  0.08046200  0.91953800  0.46052600  1
  Ce  Ce5  1  0.88046200  0.11953800  0.41052600  1
  Ce  Ce6  1  0.74712900  0.58620400  0.46052600  1
  Ce  Ce7  1  0.21379600  0.45287100  0.41052600  1
  Ce  Ce8  1  0.48046200  0.51953800  0.56052600  1
  Ce  Ce9  1  0.28046200  0.71953800  0.51052600  1
  Ce  Ce10  1  0.14712900  0.18620400  0.56052600  1
  Ce  Ce11  1  0.61379600  0.05287100  0.51052600  1
  Ce  Ce12  1  0.88046200  0.11953800  0.66052600  1
  Ce  Ce13  1  0.68046200  0.31953800  0.61052600  1
  Ce  Ce14  1  0.54712900  0.78620400  0.66052600  1
  Ce  Ce15  1  0.01379600  0.65287100  0.61052600  1
  Ce  Ce16  1  0.28046200  0.71953800  0.76052600  1
  Ce  Ce17  1  0.08046200  0.91953800  0.71052600  1
  Ce  Ce18  1  0.94712900  0.38620400  0.76052600  1
  Ce  Ce19  1  0.41379600  0.25287100  0.71052600  1
  Mg  Mg20  1  0.22154200  0.94067800  0.28635100  1
  Mg  Mg21  1  0.43159900  0.92965800  0.29001800  1
  Mg  Mg22  1  0.20960700  0.46595400  0.28336700  1
  Mg  Mg23  1  0.04205000  0.79573000  0.28203300  1
  Mg  Mg24  1  0.71887400  0.44334600  0.28901900  1
  Mg  Mg25  1  0.55131800  0.77312200  0.28768500  1
  Mg  Mg26  1  0.53938200  0.29839800  0.28470100  1
  Mg  Mg27  1  0.88046200  0.61953800  0.28552600  1
  Mg  Mg28  1  0.32932600  0.30941800  0.28103500  1
  Mg  Mg29  1  0.88046200  0.11953800  0.28552600  1
  Mg  Mg30  1  0.38046200  0.11953800  0.28552600  1
  Mg  Mg31  1  0.58046200  0.91953800  0.33552600  1
  Mg  Mg32  1  0.08046200  0.41953800  0.33552600  1
  Mg  Mg33  1  0.40427000  0.75795000  0.33203300  1
  Mg  Mg34  1  0.42687800  0.24868200  0.33768500  1
  Mg  Mg35  1  0.25932200  0.57845800  0.33635100  1
  Mg  Mg36  1  0.08394800  0.24413800  0.37108400  1
  Mg  Mg37  1  0.20805300  0.12528000  0.32575700  1
  Mg  Mg38  1  0.07472000  0.59194700  0.37575700  1
  Mg  Mg39  1  0.73404600  0.59039300  0.33336700  1
  Mg  Mg40  1  0.27034200  0.36840100  0.34001800  1
  Mg  Mg41  1  0.19494300  0.77188700  0.32946100  1
  Mg  Mg42  1  0.62154200  0.54067800  0.38635100  1
  Mg  Mg43  1  0.83159900  0.52965800  0.39001800  1
  Mg  Mg44  1  0.96598100  0.06718800  0.34159200  1
  Mg  Mg45  1  0.60960700  0.06595400  0.38336700  1
  Mg  Mg46  1  0.90160200  0.26061800  0.33470100  1
  Mg  Mg47  1  0.44205000  0.39573000  0.38203300  1
  Mg  Mg48  1  0.11887400  0.04334600  0.38901900  1
  Mg  Mg49  1  0.08620400  0.24712900  0.29529500  1
  Mg  Mg50  1  0.95131800  0.37312200  0.38768500  1
  Mg  Mg51  1  0.08046200  0.91953800  0.33552600  1
  Mg  Mg52  1  0.55586200  0.11605200  0.32108400  1
  Mg  Mg53  1  0.07697600  0.59493700  0.29996900  1
  Mg  Mg54  1  0.95287100  0.71379600  0.34529500  1
  Mg  Mg55  1  0.75665400  0.08112600  0.33901900  1
  Mg  Mg56  1  0.73281200  0.23401900  0.29159200  1
  Mg  Mg57  1  0.60506300  0.72302400  0.34996900  1
  Mg  Mg58  1  0.93938200  0.89839800  0.38470100  1
  Mg  Mg59  1  0.89058200  0.47067400  0.33103500  1
  Mg  Mg60  1  0.28046200  0.21953800  0.38552600  1
  Mg  Mg61  1  0.42811300  0.60505700  0.37946100  1
  Mg  Mg62  1  0.72932600  0.90941800  0.38103500  1
  Mg  Mg63  1  0.28046200  0.71953800  0.38552600  1
  Mg  Mg64  1  0.78046200  0.71953800  0.38552600  1
  Mg  Mg65  1  0.98046200  0.51953800  0.43552600  1
  Mg  Mg66  1  0.48046200  0.01953800  0.43552600  1
  Mg  Mg67  1  0.80427000  0.35795000  0.43203300  1
  Mg  Mg68  1  0.82687800  0.84868200  0.43768500  1
  Mg  Mg69  1  0.65932200  0.17845800  0.43635100  1
  Mg  Mg70  1  0.48394800  0.84413800  0.47108400  1
  Mg  Mg71  1  0.60805300  0.72528000  0.42575700  1
  Mg  Mg72  1  0.47472000  0.19194700  0.47575700  1
  Mg  Mg73  1  0.13404600  0.19039300  0.43336700  1
  Mg  Mg74  1  0.67034200  0.96840100  0.44001800  1
  Mg  Mg75  1  0.59494300  0.37188700  0.42946100  1
  Mg  Mg76  1  0.02154200  0.14067800  0.48635100  1
  Mg  Mg77  1  0.23159900  0.12965800  0.49001800  1
  Mg  Mg78  1  0.36598100  0.66718800  0.44159200  1
  Mg  Mg79  1  0.00960700  0.66595400  0.48336700  1
  Mg  Mg80  1  0.30160200  0.86061800  0.43470100  1
  Mg  Mg81  1  0.84205000  0.99573000  0.48203300  1
  Mg  Mg82  1  0.51887400  0.64334600  0.48901900  1
  Mg  Mg83  1  0.48620400  0.84712900  0.39529500  1
  Mg  Mg84  1  0.35131800  0.97312200  0.48768500  1
  Mg  Mg85  1  0.48046200  0.51953800  0.43552600  1
  Mg  Mg86  1  0.95586200  0.71605200  0.42108400  1
  Mg  Mg87  1  0.47697600  0.19493700  0.39996900  1
  Mg  Mg88  1  0.35287100  0.31379600  0.44529500  1
  Mg  Mg89  1  0.15665400  0.68112600  0.43901900  1
  Mg  Mg90  1  0.13281200  0.83401900  0.39159200  1
  Mg  Mg91  1  0.00506300  0.32302400  0.44996900  1
  Mg  Mg92  1  0.33938200  0.49839800  0.48470100  1
  Mg  Mg93  1  0.29058200  0.07067400  0.43103500  1
  Mg  Mg94  1  0.68046200  0.81953800  0.48552600  1
  Mg  Mg95  1  0.82811300  0.20505700  0.47946100  1
  Mg  Mg96  1  0.12932600  0.50941800  0.48103500  1
  Mg  Mg97  1  0.68046200  0.31953800  0.48552600  1
  Mg  Mg98  1  0.18046200  0.31953800  0.48552600  1
  Mg  Mg99  1  0.38046200  0.11953800  0.53552600  1
  Mg  Mg100  1  0.88046200  0.61953800  0.53552600  1
  Mg  Mg101  1  0.20427000  0.95795000  0.53203300  1
  Mg  Mg102  1  0.22687800  0.44868200  0.53768500  1
  Mg  Mg103  1  0.05932200  0.77845800  0.53635100  1
  Mg  Mg104  1  0.88394800  0.44413800  0.57108400  1
  Mg  Mg105  1  0.00805300  0.32528000  0.52575700  1
  Mg  Mg106  1  0.87472000  0.79194700  0.57575700  1
  Mg  Mg107  1  0.53404600  0.79039300  0.53336700  1
  Mg  Mg108  1  0.07034200  0.56840100  0.54001800  1
  Mg  Mg109  1  0.99494300  0.97188700  0.52946100  1
  Mg  Mg110  1  0.42154200  0.74067800  0.58635100  1
  Mg  Mg111  1  0.63159900  0.72965800  0.59001800  1
  Mg  Mg112  1  0.76598100  0.26718800  0.54159200  1
  Mg  Mg113  1  0.40960700  0.26595400  0.58336700  1
  Mg  Mg114  1  0.70160200  0.46061800  0.53470100  1
  Mg  Mg115  1  0.24205000  0.59573000  0.58203300  1
  Mg  Mg116  1  0.91887400  0.24334600  0.58901900  1
  Mg  Mg117  1  0.88620400  0.44712900  0.49529500  1
  Mg  Mg118  1  0.75131800  0.57312200  0.58768500  1
  Mg  Mg119  1  0.88046200  0.11953800  0.53552600  1
  Mg  Mg120  1  0.35586200  0.31605200  0.52108400  1
  Mg  Mg121  1  0.87697600  0.79493700  0.49996900  1
  Mg  Mg122  1  0.75287100  0.91379600  0.54529500  1
  Mg  Mg123  1  0.55665400  0.28112600  0.53901900  1
  Mg  Mg124  1  0.53281200  0.43401900  0.49159200  1
  Mg  Mg125  1  0.40506300  0.92302400  0.54996900  1
  Mg  Mg126  1  0.73938200  0.09839800  0.58470100  1
  Mg  Mg127  1  0.69058200  0.67067400  0.53103500  1
  Mg  Mg128  1  0.08046200  0.41953800  0.58552600  1
  Mg  Mg129  1  0.22811300  0.80505700  0.57946100  1
  Mg  Mg130  1  0.52932600  0.10941800  0.58103500  1
  Mg  Mg131  1  0.08046200  0.91953800  0.58552600  1
  Mg  Mg132  1  0.58046200  0.91953800  0.58552600  1
  Mg  Mg133  1  0.78046200  0.71953800  0.63552600  1
  Mg  Mg134  1  0.28046200  0.21953800  0.63552600  1
  Mg  Mg135  1  0.60427000  0.55795000  0.63203300  1
  Mg  Mg136  1  0.62687800  0.04868200  0.63768500  1
  Mg  Mg137  1  0.45932200  0.37845800  0.63635100  1
  Mg  Mg138  1  0.28394800  0.04413800  0.67108400  1
  Mg  Mg139  1  0.40805300  0.92528000  0.62575700  1
  Mg  Mg140  1  0.27472000  0.39194700  0.67575700  1
  Mg  Mg141  1  0.93404600  0.39039300  0.63336700  1
  Mg  Mg142  1  0.47034200  0.16840100  0.64001800  1
  Mg  Mg143  1  0.39494300  0.57188700  0.62946100  1
  Mg  Mg144  1  0.82154200  0.34067800  0.68635100  1
  Mg  Mg145  1  0.03159900  0.32965800  0.69001800  1
  Mg  Mg146  1  0.16598100  0.86718800  0.64159200  1
  Mg  Mg147  1  0.80960700  0.86595400  0.68336700  1
  Mg  Mg148  1  0.10160200  0.06061800  0.63470100  1
  Mg  Mg149  1  0.64205000  0.19573000  0.68203300  1
  Mg  Mg150  1  0.31887400  0.84334600  0.68901900  1
  Mg  Mg151  1  0.28620400  0.04712900  0.59529500  1
  Mg  Mg152  1  0.15131800  0.17312200  0.68768500  1
  Mg  Mg153  1  0.28046200  0.71953800  0.63552600  1
  Mg  Mg154  1  0.75586200  0.91605200  0.62108400  1
  Mg  Mg155  1  0.27697600  0.39493700  0.59996900  1
  Mg  Mg156  1  0.15287100  0.51379600  0.64529500  1
  Mg  Mg157  1  0.95665400  0.88112600  0.63901900  1
  Mg  Mg158  1  0.93281200  0.03401900  0.59159200  1
  Mg  Mg159  1  0.80506300  0.52302400  0.64996900  1
  Mg  Mg160  1  0.13938200  0.69839800  0.68470100  1
  Mg  Mg161  1  0.09058200  0.27067400  0.63103500  1
  Mg  Mg162  1  0.48046200  0.01953800  0.68552600  1
  Mg  Mg163  1  0.62811300  0.40505700  0.67946100  1
  Mg  Mg164  1  0.92932600  0.70941800  0.68103500  1
  Mg  Mg165  1  0.48046200  0.51953800  0.68552600  1
  Mg  Mg166  1  0.98046200  0.51953800  0.68552600  1
  Mg  Mg167  1  0.18046200  0.31953800  0.73552600  1
  Mg  Mg168  1  0.68046200  0.81953800  0.73552600  1
  Mg  Mg169  1  0.00427000  0.15795000  0.73203300  1
  Mg  Mg170  1  0.02687800  0.64868200  0.73768500  1
  Mg  Mg171  1  0.85932200  0.97845800  0.73635100  1
  Mg  Mg172  1  0.68394800  0.64413800  0.77108400  1
  Mg  Mg173  1  0.80805300  0.52528000  0.72575700  1
  Mg  Mg174  1  0.67472000  0.99194700  0.77575700  1
  Mg  Mg175  1  0.33404600  0.99039300  0.73336700  1
  Mg  Mg176  1  0.87034200  0.76840100  0.74001800  1
  Mg  Mg177  1  0.79494300  0.17188700  0.72946100  1
  Mg  Mg178  1  0.22154200  0.94067800  0.78635100  1
  Mg  Mg179  1  0.43159900  0.92965800  0.79001800  1
  Mg  Mg180  1  0.56598100  0.46718800  0.74159200  1
  Mg  Mg181  1  0.20960700  0.46595400  0.78336700  1
  Mg  Mg182  1  0.50160200  0.66061800  0.73470100  1
  Mg  Mg183  1  0.04205000  0.79573000  0.78203300  1
  Mg  Mg184  1  0.71887400  0.44334600  0.78901900  1
  Mg  Mg185  1  0.68620400  0.64712900  0.69529500  1
  Mg  Mg186  1  0.55131800  0.77312200  0.78768500  1
  Mg  Mg187  1  0.68046200  0.31953800  0.73552600  1
  Mg  Mg188  1  0.15586200  0.51605200  0.72108400  1
  Mg  Mg189  1  0.67697600  0.99493700  0.69996900  1
  Mg  Mg190  1  0.55287100  0.11379600  0.74529500  1
  Mg  Mg191  1  0.35665400  0.48112600  0.73901900  1
  Mg  Mg192  1  0.33281200  0.63401900  0.69159200  1
  Mg  Mg193  1  0.20506300  0.12302400  0.74996900  1
  Mg  Mg194  1  0.53938200  0.29839800  0.78470100  1
  Mg  Mg195  1  0.49058200  0.87067400  0.73103500  1
  Mg  Mg196  1  0.88046200  0.61953800  0.78552600  1
  Mg  Mg197  1  0.02811300  0.00505700  0.77946100  1
  Mg  Mg198  1  0.32932600  0.30941800  0.78103500  1
  Mg  Mg199  1  0.88046200  0.11953800  0.78552600  1
  Mg  Mg200  1  0.38046200  0.11953800  0.78552600  1
