# generated using pymatgen
data_MgTl3
_symmetry_space_group_name_H-M   'P 1'
_cell_length_a   4.75683000
_cell_length_b   10.13271400
_cell_length_c   47.56830400
_cell_angle_alpha   90.00000000
_cell_angle_beta   90.00000000
_cell_angle_gamma   90.00000000
_symmetry_Int_Tables_number   1
_chemical_formula_structural   MgTl3
_chemical_formula_sum   'Mg12 Tl36'
_cell_volume   2292.77312733
_cell_formula_units_Z   12
loop_
 _symmetry_equiv_pos_site_id
 _symmetry_equiv_pos_as_xyz
  1  'x, y, z'
loop_
 _atom_site_type_symbol
 _atom_site_label
 _atom_site_symmetry_multiplicity
 _atom_site_fract_x
 _atom_site_fract_y
 _atom_site_fract_z
 _atom_site_occupancy
  Mg  Mg0  1  0.00000000  0.00000000  0.27500000  1
  Mg  Mg1  1  0.50000000  0.50000000  0.22500000  1
  Mg  Mg2  1  0.00000000  0.00000000  0.37500000  1
  Mg  Mg3  1  0.50000000  0.50000000  0.32500000  1
  Mg  Mg4  1  0.00000000  0.00000000  0.47500000  1
  Mg  Mg5  1  0.50000000  0.50000000  0.42500000  1
  Mg  Mg6  1  0.00000000  0.00000000  0.57500000  1
  Mg  Mg7  1  0.50000000  0.50000000  0.52500000  1
  Mg  Mg8  1  0.00000000  0.00000000  0.67500000  1
  Mg  Mg9  1  0.50000000  0.50000000  0.62500000  1
  Mg  Mg10  1  0.00000000  0.00000000  0.77500000  1
  Mg  Mg11  1  0.50000000  0.50000000  0.72500000  1
  Tl  Tl12  1  0.50000000  0.00000000  0.22500000  1
  Tl  Tl13  1  0.50000000  0.25000000  0.27500000  1
  Tl  Tl14  1  0.00000000  0.25000000  0.22500000  1
  Tl  Tl15  1  0.00000000  0.50000000  0.27500000  1
  Tl  Tl16  1  0.00000000  0.75000000  0.22500000  1
  Tl  Tl17  1  0.50000000  0.75000000  0.27500000  1
  Tl  Tl18  1  0.50000000  0.00000000  0.32500000  1
  Tl  Tl19  1  0.50000000  0.25000000  0.37500000  1
  Tl  Tl20  1  0.00000000  0.25000000  0.32500000  1
  Tl  Tl21  1  0.00000000  0.50000000  0.37500000  1
  Tl  Tl22  1  0.00000000  0.75000000  0.32500000  1
  Tl  Tl23  1  0.50000000  0.75000000  0.37500000  1
  Tl  Tl24  1  0.50000000  0.00000000  0.42500000  1
  Tl  Tl25  1  0.50000000  0.25000000  0.47500000  1
  Tl  Tl26  1  0.00000000  0.25000000  0.42500000  1
  Tl  Tl27  1  0.00000000  0.50000000  0.47500000  1
  Tl  Tl28  1  0.00000000  0.75000000  0.42500000  1
  Tl  Tl29  1  0.50000000  0.75000000  0.47500000  1
  Tl  Tl30  1  0.50000000  0.00000000  0.52500000  1
  Tl  Tl31  1  0.50000000  0.25000000  0.57500000  1
  Tl  Tl32  1  0.00000000  0.25000000  0.52500000  1
  Tl  Tl33  1  0.00000000  0.50000000  0.57500000  1
  Tl  Tl34  1  0.00000000  0.75000000  0.52500000  1
  Tl  Tl35  1  0.50000000  0.75000000  0.57500000  1
  Tl  Tl36  1  0.50000000  0.00000000  0.62500000  1
  Tl  Tl37  1  0.50000000  0.25000000  0.67500000  1
  Tl  Tl38  1  0.00000000  0.25000000  0.62500000  1
  Tl  Tl39  1  0.00000000  0.50000000  0.67500000  1
  Tl  Tl40  1  0.00000000  0.75000000  0.62500000  1
  Tl  Tl41  1  0.50000000  0.75000000  0.67500000  1
  Tl  Tl42  1  0.50000000  0.00000000  0.72500000  1
  Tl  Tl43  1  0.50000000  0.25000000  0.77500000  1
  Tl  Tl44  1  0.00000000  0.25000000  0.72500000  1
  Tl  Tl45  1  0.00000000  0.50000000  0.77500000  1
  Tl  Tl46  1  0.00000000  0.75000000  0.72500000  1
  Tl  Tl47  1  0.50000000  0.75000000  0.77500000  1
