# generated using pymatgen
data_Dy7Mg3
_symmetry_space_group_name_H-M   'P 1'
_cell_length_a   5.47816800
_cell_length_b   8.74776954
_cell_length_c   43.36727000
_cell_angle_alpha   90.82850130
_cell_angle_beta   90.00000000
_cell_angle_gamma   90.00000000
_symmetry_Int_Tables_number   1
_chemical_formula_structural   Dy7Mg3
_chemical_formula_sum   'Dy28 Mg12'
_cell_volume   2078.01825148
_cell_formula_units_Z   4
loop_
 _symmetry_equiv_pos_site_id
 _symmetry_equiv_pos_as_xyz
  1  'x, y, z'
loop_
 _atom_site_type_symbol
 _atom_site_label
 _atom_site_symmetry_multiplicity
 _atom_site_fract_x
 _atom_site_fract_y
 _atom_site_fract_z
 _atom_site_occupancy
  Dy  Dy0  1  0.25000000  0.64311500  0.75624400  1
  Dy  Dy1  1  0.25000000  0.25569400  0.78287700  1
  Dy  Dy2  1  0.75000000  0.99480000  0.77153400  1
  Dy  Dy3  1  0.75000000  0.38222200  0.74490000  1
  Dy  Dy4  1  0.25000000  0.72644800  0.67291000  1
  Dy  Dy5  1  0.25000000  0.33902700  0.69954400  1
  Dy  Dy6  1  0.75000000  0.07813400  0.68820100  1
  Dy  Dy7  1  0.75000000  0.46555500  0.66156700  1
  Dy  Dy8  1  0.25000000  0.80978200  0.58957700  1
  Dy  Dy9  1  0.25000000  0.42236000  0.61621100  1
  Dy  Dy10  1  0.75000000  0.16146700  0.60486800  1
  Dy  Dy11  1  0.75000000  0.54888800  0.57823400  1
  Dy  Dy12  1  0.25000000  0.89311500  0.50624400  1
  Dy  Dy13  1  0.25000000  0.50569400  0.53287700  1
  Dy  Dy14  1  0.75000000  0.24480000  0.52153400  1
  Dy  Dy15  1  0.75000000  0.63222200  0.49490000  1
  Dy  Dy16  1  0.25000000  0.97644800  0.42291000  1
  Dy  Dy17  1  0.25000000  0.58902700  0.44954400  1
  Dy  Dy18  1  0.75000000  0.32813400  0.43820100  1
  Dy  Dy19  1  0.75000000  0.71555500  0.41156700  1
  Dy  Dy20  1  0.25000000  0.05978200  0.33957700  1
  Dy  Dy21  1  0.25000000  0.67236000  0.36621100  1
  Dy  Dy22  1  0.75000000  0.41146700  0.35486800  1
  Dy  Dy23  1  0.75000000  0.79888800  0.32823400  1
  Dy  Dy24  1  0.25000000  0.14311500  0.25624400  1
  Dy  Dy25  1  0.25000000  0.75569400  0.28287700  1
  Dy  Dy26  1  0.75000000  0.49480000  0.27153400  1
  Dy  Dy27  1  0.75000000  0.88222200  0.24490000  1
  Mg  Mg28  1  0.25000000  0.98911100  0.72780900  1
  Mg  Mg29  1  0.75000000  0.73213700  0.71663600  1
  Mg  Mg30  1  0.25000000  0.07244500  0.64447500  1
  Mg  Mg31  1  0.75000000  0.81547100  0.63330200  1
  Mg  Mg32  1  0.25000000  0.15577800  0.56114200  1
  Mg  Mg33  1  0.75000000  0.89880400  0.54996900  1
  Mg  Mg34  1  0.25000000  0.23911100  0.47780900  1
  Mg  Mg35  1  0.75000000  0.98213700  0.46663600  1
  Mg  Mg36  1  0.25000000  0.32244500  0.39447500  1
  Mg  Mg37  1  0.75000000  0.06547100  0.38330200  1
  Mg  Mg38  1  0.25000000  0.40577800  0.31114200  1
  Mg  Mg39  1  0.75000000  0.14880400  0.29996900  1
