# generated using pymatgen
data_LiMg2
_symmetry_space_group_name_H-M   'P 1'
_cell_length_a   5.06834700
_cell_length_b   16.83539200
_cell_length_c   42.71859300
_cell_angle_alpha   90.00000000
_cell_angle_beta   90.00000000
_cell_angle_gamma   90.00000000
_symmetry_Int_Tables_number   1
_chemical_formula_structural   LiMg2
_chemical_formula_sum   'Li36 Mg72'
_cell_volume   3645.07538076
_cell_formula_units_Z   36
loop_
 _symmetry_equiv_pos_site_id
 _symmetry_equiv_pos_as_xyz
  1  'x, y, z'
loop_
 _atom_site_type_symbol
 _atom_site_label
 _atom_site_symmetry_multiplicity
 _atom_site_fract_x
 _atom_site_fract_y
 _atom_site_fract_z
 _atom_site_occupancy
  Li  Li0  1  0.25000000  0.88599800  0.19642900  1
  Li  Li1  1  0.75000000  0.61400200  0.23214300  1
  Li  Li2  1  0.25000000  0.38599800  0.23214300  1
  Li  Li3  1  0.75000000  0.11400200  0.19642900  1
  Li  Li4  1  0.25000000  0.88599800  0.26785700  1
  Li  Li5  1  0.75000000  0.61400200  0.30357100  1
  Li  Li6  1  0.25000000  0.38599800  0.30357100  1
  Li  Li7  1  0.75000000  0.11400200  0.26785700  1
  Li  Li8  1  0.25000000  0.88599800  0.33928600  1
  Li  Li9  1  0.75000000  0.61400200  0.37500000  1
  Li  Li10  1  0.25000000  0.38599800  0.37500000  1
  Li  Li11  1  0.75000000  0.11400200  0.33928600  1
  Li  Li12  1  0.25000000  0.88599800  0.41071400  1
  Li  Li13  1  0.75000000  0.61400200  0.44642900  1
  Li  Li14  1  0.25000000  0.38599800  0.44642900  1
  Li  Li15  1  0.75000000  0.11400200  0.41071400  1
  Li  Li16  1  0.25000000  0.88599800  0.48214300  1
  Li  Li17  1  0.75000000  0.61400200  0.51785700  1
  Li  Li18  1  0.25000000  0.38599800  0.51785700  1
  Li  Li19  1  0.75000000  0.11400200  0.48214300  1
  Li  Li20  1  0.25000000  0.88599800  0.55357100  1
  Li  Li21  1  0.75000000  0.61400200  0.58928600  1
  Li  Li22  1  0.25000000  0.38599800  0.58928600  1
  Li  Li23  1  0.75000000  0.11400200  0.55357100  1
  Li  Li24  1  0.25000000  0.88599800  0.62500000  1
  Li  Li25  1  0.75000000  0.61400200  0.66071400  1
  Li  Li26  1  0.25000000  0.38599800  0.66071400  1
  Li  Li27  1  0.75000000  0.11400200  0.62500000  1
  Li  Li28  1  0.25000000  0.88599800  0.69642900  1
  Li  Li29  1  0.75000000  0.61400200  0.73214300  1
  Li  Li30  1  0.25000000  0.38599800  0.73214300  1
  Li  Li31  1  0.75000000  0.11400200  0.69642900  1
  Li  Li32  1  0.25000000  0.88599800  0.76785700  1
  Li  Li33  1  0.75000000  0.61400200  0.80357100  1
  Li  Li34  1  0.25000000  0.38599800  0.80357100  1
  Li  Li35  1  0.75000000  0.11400200  0.76785700  1
  Mg  Mg36  1  0.25000000  0.71797500  0.23214300  1
  Mg  Mg37  1  0.25000000  0.55113200  0.19642900  1
  Mg  Mg38  1  0.75000000  0.78202500  0.19642900  1
  Mg  Mg39  1  0.75000000  0.94886800  0.23214300  1
  Mg  Mg40  1  0.25000000  0.21797500  0.19642900  1
  Mg  Mg41  1  0.25000000  0.05113200  0.23214300  1
  Mg  Mg42  1  0.75000000  0.28202500  0.23214300  1
  Mg  Mg43  1  0.75000000  0.44886800  0.19642900  1
  Mg  Mg44  1  0.25000000  0.71797500  0.30357100  1
  Mg  Mg45  1  0.25000000  0.55113200  0.26785700  1
  Mg  Mg46  1  0.75000000  0.78202500  0.26785700  1
  Mg  Mg47  1  0.75000000  0.94886800  0.30357100  1
  Mg  Mg48  1  0.25000000  0.21797500  0.26785700  1
  Mg  Mg49  1  0.25000000  0.05113200  0.30357100  1
  Mg  Mg50  1  0.75000000  0.28202500  0.30357100  1
  Mg  Mg51  1  0.75000000  0.44886800  0.26785700  1
  Mg  Mg52  1  0.25000000  0.71797500  0.37500000  1
  Mg  Mg53  1  0.25000000  0.55113200  0.33928600  1
  Mg  Mg54  1  0.75000000  0.78202500  0.33928600  1
  Mg  Mg55  1  0.75000000  0.94886800  0.37500000  1
  Mg  Mg56  1  0.25000000  0.21797500  0.33928600  1
  Mg  Mg57  1  0.25000000  0.05113200  0.37500000  1
  Mg  Mg58  1  0.75000000  0.28202500  0.37500000  1
  Mg  Mg59  1  0.75000000  0.44886800  0.33928600  1
  Mg  Mg60  1  0.25000000  0.71797500  0.44642900  1
  Mg  Mg61  1  0.25000000  0.55113200  0.41071400  1
  Mg  Mg62  1  0.75000000  0.78202500  0.41071400  1
  Mg  Mg63  1  0.75000000  0.94886800  0.44642900  1
  Mg  Mg64  1  0.25000000  0.21797500  0.41071400  1
  Mg  Mg65  1  0.25000000  0.05113200  0.44642900  1
  Mg  Mg66  1  0.75000000  0.28202500  0.44642900  1
  Mg  Mg67  1  0.75000000  0.44886800  0.41071400  1
  Mg  Mg68  1  0.25000000  0.71797500  0.51785700  1
  Mg  Mg69  1  0.25000000  0.55113200  0.48214300  1
  Mg  Mg70  1  0.75000000  0.78202500  0.48214300  1
  Mg  Mg71  1  0.75000000  0.94886800  0.51785700  1
  Mg  Mg72  1  0.25000000  0.21797500  0.48214300  1
  Mg  Mg73  1  0.25000000  0.05113200  0.51785700  1
  Mg  Mg74  1  0.75000000  0.28202500  0.51785700  1
  Mg  Mg75  1  0.75000000  0.44886800  0.48214300  1
  Mg  Mg76  1  0.25000000  0.71797500  0.58928600  1
  Mg  Mg77  1  0.25000000  0.55113200  0.55357100  1
  Mg  Mg78  1  0.75000000  0.78202500  0.55357100  1
  Mg  Mg79  1  0.75000000  0.94886800  0.58928600  1
  Mg  Mg80  1  0.25000000  0.21797500  0.55357100  1
  Mg  Mg81  1  0.25000000  0.05113200  0.58928600  1
  Mg  Mg82  1  0.75000000  0.28202500  0.58928600  1
  Mg  Mg83  1  0.75000000  0.44886800  0.55357100  1
  Mg  Mg84  1  0.25000000  0.71797500  0.66071400  1
  Mg  Mg85  1  0.25000000  0.55113200  0.62500000  1
  Mg  Mg86  1  0.75000000  0.78202500  0.62500000  1
  Mg  Mg87  1  0.75000000  0.94886800  0.66071400  1
  Mg  Mg88  1  0.25000000  0.21797500  0.62500000  1
  Mg  Mg89  1  0.25000000  0.05113200  0.66071400  1
  Mg  Mg90  1  0.75000000  0.28202500  0.66071400  1
  Mg  Mg91  1  0.75000000  0.44886800  0.62500000  1
  Mg  Mg92  1  0.25000000  0.71797500  0.73214300  1
  Mg  Mg93  1  0.25000000  0.55113200  0.69642900  1
  Mg  Mg94  1  0.75000000  0.78202500  0.69642900  1
  Mg  Mg95  1  0.75000000  0.94886800  0.73214300  1
  Mg  Mg96  1  0.25000000  0.21797500  0.69642900  1
  Mg  Mg97  1  0.25000000  0.05113200  0.73214300  1
  Mg  Mg98  1  0.75000000  0.28202500  0.73214300  1
  Mg  Mg99  1  0.75000000  0.44886800  0.69642900  1
  Mg  Mg100  1  0.25000000  0.71797500  0.80357100  1
  Mg  Mg101  1  0.25000000  0.55113200  0.76785700  1
  Mg  Mg102  1  0.75000000  0.78202500  0.76785700  1
  Mg  Mg103  1  0.75000000  0.94886800  0.80357100  1
  Mg  Mg104  1  0.25000000  0.21797500  0.76785700  1
  Mg  Mg105  1  0.25000000  0.05113200  0.80357100  1
  Mg  Mg106  1  0.75000000  0.28202500  0.80357100  1
  Mg  Mg107  1  0.75000000  0.44886800  0.76785700  1
