# generated using pymatgen
data_Mg8Zn13
_symmetry_space_group_name_H-M   'P 1'
_cell_length_a   5.07402260
_cell_length_b   13.26606241
_cell_length_c   57.00757700
_cell_angle_alpha   92.18610401
_cell_angle_beta   87.66012493
_cell_angle_gamma   100.62858194
_symmetry_Int_Tables_number   1
_chemical_formula_structural   Mg8Zn13
_chemical_formula_sum   'Mg40 Zn65'
_cell_volume   3766.49990850
_cell_formula_units_Z   5
loop_
 _symmetry_equiv_pos_site_id
 _symmetry_equiv_pos_as_xyz
  1  'x, y, z'
loop_
 _atom_site_type_symbol
 _atom_site_label
 _atom_site_symmetry_multiplicity
 _atom_site_fract_x
 _atom_site_fract_y
 _atom_site_fract_z
 _atom_site_occupancy
  Mg  Mg0  1  0.26205100  0.63525500  0.36131900  1
  Mg  Mg1  1  0.47155100  0.00208200  0.31472000  1
  Mg  Mg2  1  0.57347500  0.38290400  0.47444300  1
  Mg  Mg3  1  0.81194400  0.75597300  0.37546800  1
  Mg  Mg4  1  0.94458200  0.92998500  0.28690200  1
  Mg  Mg5  1  0.13746100  0.42594200  0.39337700  1
  Mg  Mg6  1  0.82797000  0.68560300  0.28050000  1
  Mg  Mg7  1  0.91046500  0.96643600  0.39725900  1
  Mg  Mg8  1  0.26466000  0.58552200  0.30541000  1
  Mg  Mg9  1  0.77782700  0.79242400  0.48582500  1
  Mg  Mg10  1  0.14893400  0.33950400  0.29828400  1
  Mg  Mg11  1  0.45774900  0.13688700  0.46731800  1
  Mg  Mg12  1  0.39318200  0.89858500  0.36259200  1
  Mg  Mg13  1  0.13951300  0.48000800  0.44915600  1
  Mg  Mg14  1  0.58289600  0.24240000  0.32357100  1
  Mg  Mg15  1  0.89443900  0.03680500  0.49222800  1
  Mg  Mg16  1  0.46035800  0.08715400  0.41140900  1
  Mg  Mg17  1  0.58494700  0.29646600  0.37935000  1
  Mg  Mg18  1  0.25085800  0.72032600  0.45800700  1
  Mg  Mg19  1  0.32922700  0.82382300  0.41013600  1
  Mg  Mg20  1  0.01205100  0.38525500  0.61131900  1
  Mg  Mg21  1  0.22155100  0.75208200  0.56472000  1
  Mg  Mg22  1  0.32347500  0.13290400  0.72444300  1
  Mg  Mg23  1  0.56194400  0.50597300  0.62546800  1
  Mg  Mg24  1  0.69458200  0.67998500  0.53690200  1
  Mg  Mg25  1  0.88746100  0.17594200  0.64337700  1
  Mg  Mg26  1  0.57797000  0.43560300  0.53050000  1
  Mg  Mg27  1  0.66046500  0.71643600  0.64725900  1
  Mg  Mg28  1  0.01466000  0.33552200  0.55541000  1
  Mg  Mg29  1  0.52782700  0.54242400  0.73582500  1
  Mg  Mg30  1  0.89893400  0.08950400  0.54828400  1
  Mg  Mg31  1  0.20774900  0.88688700  0.71731800  1
  Mg  Mg32  1  0.14318200  0.64858500  0.61259200  1
  Mg  Mg33  1  0.88951300  0.23000800  0.69915600  1
  Mg  Mg34  1  0.33289600  0.99240000  0.57357100  1
  Mg  Mg35  1  0.64443900  0.78680500  0.74222800  1
  Mg  Mg36  1  0.21035800  0.83715400  0.66140900  1
  Mg  Mg37  1  0.33494700  0.04646600  0.62935000  1
  Mg  Mg38  1  0.00085800  0.47032600  0.70800700  1
  Mg  Mg39  1  0.07922700  0.57382300  0.66013600  1
  Zn  Zn40  1  0.39183600  0.81233700  0.28443600  1
  Zn  Zn41  1  0.92546600  0.94261500  0.34071100  1
  Zn  Zn42  1  0.69877300  0.45908000  0.30207700  1
  Zn  Zn43  1  0.12210000  0.94385800  0.44844100  1
  Zn  Zn44  1  0.81113900  0.14557800  0.28055500  1
  Zn  Zn45  1  0.10622000  0.78294800  0.32398100  1
  Zn  Zn46  1  0.33057300  0.91007200  0.48829100  1
  Zn  Zn47  1  0.08215500  0.27044500  0.35209000  1
  Zn  Zn48  1  0.41752000  0.57648100  0.49214400  1
  Zn  Zn49  1  0.92393100  0.43595900  0.34248300  1
  Zn  Zn50  1  0.70068700  0.52921800  0.37716300  1
  Zn  Zn51  1  0.69319900  0.60311700  0.45326900  1
  Zn  Zn52  1  0.79694300  0.77979400  0.43201700  1
  Zn  Zn53  1  0.64025300  0.45196300  0.42063700  1
  Zn  Zn54  1  0.47128600  0.62458700  0.41127800  1
  Zn  Zn55  1  0.30488900  0.14592700  0.28058300  1
  Zn  Zn56  1  0.61618900  0.93946100  0.44874600  1
  Zn  Zn57  1  0.25112300  0.09782200  0.36144900  1
  Zn  Zn58  1  0.91127000  0.57683000  0.49217300  1
  Zn  Zn59  1  0.76918300  0.61219500  0.33249800  1
  Zn  Zn60  1  0.41898400  0.43432200  0.34261400  1
  Zn  Zn61  1  0.98646000  0.62768300  0.41082300  1
  Zn  Zn62  1  0.95322600  0.11021400  0.44022900  1
  Zn  Zn63  1  0.73594800  0.09472600  0.36190400  1
  Zn  Zn64  1  0.02920900  0.11929100  0.31945800  1
  Zn  Zn65  1  0.30342400  0.28808600  0.43011300  1
  Zn  Zn66  1  0.60030900  0.77855000  0.32428600  1
  Zn  Zn67  1  0.79847800  0.28645000  0.43024500  1
  Zn  Zn68  1  0.02172200  0.19319100  0.39556500  1
  Zn  Zn69  1  0.02363600  0.26332900  0.47065100  1
  Zn  Zn70  1  0.14183600  0.56233700  0.53443600  1
  Zn  Zn71  1  0.67546600  0.69261500  0.59071100  1
  Zn  Zn72  1  0.44877300  0.20908000  0.55207700  1
  Zn  Zn73  1  0.87210000  0.69385800  0.69844100  1
  Zn  Zn74  1  0.56113900  0.89557800  0.53055500  1
  Zn  Zn75  1  0.85622000  0.53294800  0.57398100  1
  Zn  Zn76  1  0.73620400  0.23620400  0.51136400  1
  Zn  Zn77  1  0.08057300  0.66007200  0.73829100  1
  Zn  Zn78  1  0.83215500  0.02044500  0.60209000  1
  Zn  Zn79  1  0.16752000  0.32648100  0.74214400  1
  Zn  Zn80  1  0.67393100  0.18595900  0.59248300  1
  Zn  Zn81  1  0.45068700  0.27921800  0.62716300  1
  Zn  Zn82  1  0.07566000  0.40754600  0.50296300  1
  Zn  Zn83  1  0.44319900  0.35311700  0.70326900  1
  Zn  Zn84  1  0.54694300  0.52979400  0.68201700  1
  Zn  Zn85  1  0.39025300  0.20196300  0.67063700  1
  Zn  Zn86  1  0.22128600  0.37458700  0.66127800  1
  Zn  Zn87  1  0.05488900  0.89592700  0.53058300  1
  Zn  Zn88  1  0.36618900  0.68946100  0.69874600  1
  Zn  Zn89  1  0.39674900  0.06486300  0.51976400  1
  Zn  Zn90  1  0.00112300  0.84782200  0.61144900  1
  Zn  Zn91  1  0.66127000  0.32683000  0.74217300  1
  Zn  Zn92  1  0.23620400  0.23620400  0.51136400  1
  Zn  Zn93  1  0.51918300  0.36219500  0.58249800  1
  Zn  Zn94  1  0.16898400  0.18432200  0.59261400  1
  Zn  Zn95  1  0.73646000  0.37768300  0.66082300  1
  Zn  Zn96  1  0.70322600  0.86021400  0.69022900  1
  Zn  Zn97  1  0.48594800  0.84472600  0.61190400  1
  Zn  Zn98  1  0.77920900  0.86929100  0.56945800  1
  Zn  Zn99  1  0.05342400  0.03808600  0.68011300  1
  Zn  Zn100  1  0.35030900  0.52855000  0.57428600  1
  Zn  Zn101  1  0.23620400  0.73620400  0.51136400  1
  Zn  Zn102  1  0.54847800  0.03645000  0.68024500  1
  Zn  Zn103  1  0.77172200  0.94319100  0.64556500  1
  Zn  Zn104  1  0.77363600  0.01332900  0.72065100  1
