# generated using pymatgen
data_Mg28Co51
_symmetry_space_group_name_H-M   'P 1'
_cell_length_a   4.82826386
_cell_length_b   9.24833190
_cell_length_c   44.51983400
_cell_angle_alpha   86.73171124
_cell_angle_beta   93.10844041
_cell_angle_gamma   74.86855310
_symmetry_Int_Tables_number   1
_chemical_formula_structural   Mg28Co51
_chemical_formula_sum   'Mg28 Co51'
_cell_volume   1910.98448662
_cell_formula_units_Z   1
loop_
 _symmetry_equiv_pos_site_id
 _symmetry_equiv_pos_as_xyz
  1  'x, y, z'
loop_
 _atom_site_type_symbol
 _atom_site_label
 _atom_site_symmetry_multiplicity
 _atom_site_fract_x
 _atom_site_fract_y
 _atom_site_fract_z
 _atom_site_occupancy
  Mg  Mg0  1  0.30824600  0.54443400  0.21013200  1
  Mg  Mg1  1  0.18374500  0.82456000  0.24125700  1
  Mg  Mg2  1  0.58602400  0.00276700  0.22402100  1
  Mg  Mg3  1  0.46152300  0.28289300  0.25514600  1
  Mg  Mg4  1  0.97491300  0.29443400  0.29346500  1
  Mg  Mg5  1  0.85041200  0.57456000  0.32459000  1
  Mg  Mg6  1  0.25269100  0.75276700  0.30735400  1
  Mg  Mg7  1  0.12819000  0.03289300  0.33847900  1
  Mg  Mg8  1  0.64157900  0.04443400  0.37679900  1
  Mg  Mg9  1  0.51707900  0.32456000  0.40792400  1
  Mg  Mg10  1  0.91935700  0.50276700  0.39068700  1
  Mg  Mg11  1  0.79485700  0.78289300  0.42181300  1
  Mg  Mg12  1  0.30824600  0.79443400  0.46013200  1
  Mg  Mg13  1  0.18374500  0.07456000  0.49125700  1
  Mg  Mg14  1  0.58602400  0.25276700  0.47402100  1
  Mg  Mg15  1  0.46152300  0.53289300  0.50514600  1
  Mg  Mg16  1  0.97491300  0.54443400  0.54346500  1
  Mg  Mg17  1  0.85041200  0.82456000  0.57459000  1
  Mg  Mg18  1  0.25269100  0.00276700  0.55735400  1
  Mg  Mg19  1  0.12819000  0.28289300  0.58847900  1
  Mg  Mg20  1  0.64157900  0.29443400  0.62679900  1
  Mg  Mg21  1  0.51707900  0.57456000  0.65792400  1
  Mg  Mg22  1  0.91935700  0.75276700  0.64068700  1
  Mg  Mg23  1  0.79485700  0.03289300  0.67181300  1
  Mg  Mg24  1  0.30824600  0.04443400  0.71013200  1
  Mg  Mg25  1  0.18374500  0.32456000  0.74125700  1
  Mg  Mg26  1  0.58602400  0.50276700  0.72402100  1
  Mg  Mg27  1  0.46152300  0.78289300  0.75514600  1
  Co  Co28  1  0.88488500  0.41366400  0.23263900  1
  Co  Co29  1  0.57407400  0.55851200  0.26769000  1
  Co  Co30  1  0.08589700  0.55851200  0.26769000  1
  Co  Co31  1  0.74468200  0.68646700  0.22503800  1
  Co  Co32  1  0.71821800  0.78866400  0.27430600  1
  Co  Co33  1  0.02508700  0.14086000  0.24024000  1
  Co  Co34  1  0.35053900  0.01881500  0.28092200  1
  Co  Co35  1  0.86236200  0.01881500  0.28092200  1
  Co  Co36  1  0.55155100  0.16366400  0.31597200  1
  Co  Co37  1  0.24074100  0.30851200  0.35102300  1
  Co  Co38  1  0.75256400  0.30851200  0.35102300  1
  Co  Co39  1  0.41134900  0.43646700  0.30837100  1
  Co  Co40  1  0.38488500  0.53866400  0.35763900  1
  Co  Co41  1  0.69175400  0.89086000  0.32357400  1
  Co  Co42  1  0.01720500  0.76881500  0.36425500  1
  Co  Co43  1  0.52902800  0.76881500  0.36425500  1
  Co  Co44  1  0.21821800  0.91366400  0.39930600  1
  Co  Co45  1  0.90740800  0.05851200  0.43435600  1
  Co  Co46  1  0.41923100  0.05851200  0.43435600  1
  Co  Co47  1  0.07801500  0.18646700  0.39170400  1
  Co  Co48  1  0.05155100  0.28866400  0.44097200  1
  Co  Co49  1  0.35842100  0.64086000  0.40690700  1
  Co  Co50  1  0.68387200  0.51881500  0.44758800  1
  Co  Co51  1  0.19569500  0.51881500  0.44758800  1
  Co  Co52  1  0.88488500  0.66366400  0.48263900  1
  Co  Co53  1  0.57407400  0.80851200  0.51769000  1
  Co  Co54  1  0.08589700  0.80851200  0.51769000  1
  Co  Co55  1  0.74468200  0.93646700  0.47503800  1
  Co  Co56  1  0.71821800  0.03866400  0.52430600  1
  Co  Co57  1  0.02508700  0.39086000  0.49024000  1
  Co  Co58  1  0.35053900  0.26881500  0.53092200  1
  Co  Co59  1  0.86236200  0.26881500  0.53092200  1
  Co  Co60  1  0.55155100  0.41366400  0.56597200  1
  Co  Co61  1  0.24074100  0.55851200  0.60102300  1
  Co  Co62  1  0.75256400  0.55851200  0.60102300  1
  Co  Co63  1  0.41134900  0.68646700  0.55837100  1
  Co  Co64  1  0.38488500  0.78866400  0.60763900  1
  Co  Co65  1  0.69175400  0.14086000  0.57357400  1
  Co  Co66  1  0.01720500  0.01881500  0.61425500  1
  Co  Co67  1  0.52902800  0.01881500  0.61425500  1
  Co  Co68  1  0.21821800  0.16366400  0.64930600  1
  Co  Co69  1  0.90740800  0.30851200  0.68435600  1
  Co  Co70  1  0.41923100  0.30851200  0.68435600  1
  Co  Co71  1  0.07801500  0.43646700  0.64170400  1
  Co  Co72  1  0.05155100  0.53866400  0.69097200  1
  Co  Co73  1  0.35842100  0.89086000  0.65690700  1
  Co  Co74  1  0.68387200  0.76881500  0.69758800  1
  Co  Co75  1  0.19569500  0.76881500  0.69758800  1
  Co  Co76  1  0.88488500  0.91366400  0.73263900  1
  Co  Co77  1  0.74468200  0.18646700  0.72503800  1
  Co  Co78  1  0.02508700  0.64086000  0.74024000  1
