# generated using pymatgen
data_Mg3Cd
_symmetry_space_group_name_H-M   'P 1'
_cell_length_a   5.12256600
_cell_length_b   6.30670400
_cell_length_c   43.69412700
_cell_angle_alpha   90.00000000
_cell_angle_beta   90.00000000
_cell_angle_gamma   90.00000000
_symmetry_Int_Tables_number   1
_chemical_formula_structural   Mg3Cd
_chemical_formula_sum   'Mg30 Cd10'
_cell_volume   1411.60464087
_cell_formula_units_Z   10
loop_
 _symmetry_equiv_pos_site_id
 _symmetry_equiv_pos_as_xyz
  1  'x, y, z'
loop_
 _atom_site_type_symbol
 _atom_site_label
 _atom_site_symmetry_multiplicity
 _atom_site_fract_x
 _atom_site_fract_y
 _atom_site_fract_z
 _atom_site_occupancy
  Mg  Mg0  1  0.75000000  0.25194900  0.20849600  1
  Mg  Mg1  1  0.75000000  0.50000000  0.27050800  1
  Mg  Mg2  1  0.75000000  0.74805100  0.20849600  1
  Mg  Mg3  1  0.25000000  0.24805100  0.29150400  1
  Mg  Mg4  1  0.25000000  0.00000000  0.22949200  1
  Mg  Mg5  1  0.25000000  0.75194900  0.29150400  1
  Mg  Mg6  1  0.75000000  0.75194900  0.33349600  1
  Mg  Mg7  1  0.75000000  0.00000000  0.39550800  1
  Mg  Mg8  1  0.75000000  0.24805100  0.33349600  1
  Mg  Mg9  1  0.25000000  0.74805100  0.41650400  1
  Mg  Mg10  1  0.25000000  0.50000000  0.35449200  1
  Mg  Mg11  1  0.25000000  0.25194900  0.41650400  1
  Mg  Mg12  1  0.75000000  0.25194900  0.45849600  1
  Mg  Mg13  1  0.75000000  0.50000000  0.52050800  1
  Mg  Mg14  1  0.75000000  0.74805100  0.45849600  1
  Mg  Mg15  1  0.25000000  0.24805100  0.54150400  1
  Mg  Mg16  1  0.25000000  1.00000000  0.47949200  1
  Mg  Mg17  1  0.25000000  0.75194900  0.54150400  1
  Mg  Mg18  1  0.75000000  0.75194900  0.58349600  1
  Mg  Mg19  1  0.75000000  1.00000000  0.64550800  1
  Mg  Mg20  1  0.75000000  0.24805100  0.58349600  1
  Mg  Mg21  1  0.25000000  0.74805100  0.66650400  1
  Mg  Mg22  1  0.25000000  0.50000000  0.60449200  1
  Mg  Mg23  1  0.25000000  0.25194900  0.66650400  1
  Mg  Mg24  1  0.75000000  0.25194900  0.70849600  1
  Mg  Mg25  1  0.75000000  0.50000000  0.77050800  1
  Mg  Mg26  1  0.75000000  0.74805100  0.70849600  1
  Mg  Mg27  1  0.25000000  0.24805100  0.79150400  1
  Mg  Mg28  1  0.25000000  0.00000000  0.72949200  1
  Mg  Mg29  1  0.25000000  0.75194900  0.79150400  1
  Cd  Cd30  1  0.75000000  0.00000000  0.27083300  1
  Cd  Cd31  1  0.25000000  0.50000000  0.22916700  1
  Cd  Cd32  1  0.75000000  0.50000000  0.39583300  1
  Cd  Cd33  1  0.25000000  0.00000000  0.35416700  1
  Cd  Cd34  1  0.75000000  0.00000000  0.52083300  1
  Cd  Cd35  1  0.25000000  0.50000000  0.47916700  1
  Cd  Cd36  1  0.75000000  0.50000000  0.64583300  1
  Cd  Cd37  1  0.25000000  0.00000000  0.60416700  1
  Cd  Cd38  1  0.75000000  0.00000000  0.77083300  1
  Cd  Cd39  1  0.25000000  0.50000000  0.72916700  1
