# generated using pymatgen
data_Pr6Mg11
_symmetry_space_group_name_H-M   'P 1'
_cell_length_a   6.18580400
_cell_length_b   6.18580400
_cell_length_c   43.74024100
_cell_angle_alpha   90.00000000
_cell_angle_beta   90.00000000
_cell_angle_gamma   90.00000000
_symmetry_Int_Tables_number   1
_chemical_formula_structural   Pr6Mg11
_chemical_formula_sum   'Pr12 Mg22'
_cell_volume   1673.68406673
_cell_formula_units_Z   2
loop_
 _symmetry_equiv_pos_site_id
 _symmetry_equiv_pos_as_xyz
  1  'x, y, z'
loop_
 _atom_site_type_symbol
 _atom_site_label
 _atom_site_symmetry_multiplicity
 _atom_site_fract_x
 _atom_site_fract_y
 _atom_site_fract_z
 _atom_site_occupancy
  Pr  Pr0  1  0.50000000  0.00000000  0.75833300  1
  Pr  Pr1  1  0.00000000  1.00000000  0.60833300  1
  Pr  Pr2  1  1.00000000  0.50000000  0.65833300  1
  Pr  Pr3  1  0.50000000  0.50000000  0.70833300  1
  Pr  Pr4  1  0.50000000  0.00000000  0.55833300  1
  Pr  Pr5  1  0.00000000  1.00000000  0.40833300  1
  Pr  Pr6  1  1.00000000  0.50000000  0.45833300  1
  Pr  Pr7  1  0.50000000  0.50000000  0.50833300  1
  Pr  Pr8  1  0.50000000  0.00000000  0.35833300  1
  Pr  Pr9  1  0.00000000  0.00000000  0.20833300  1
  Pr  Pr10  1  1.00000000  0.50000000  0.25833300  1
  Pr  Pr11  1  0.50000000  0.50000000  0.30833300  1
  Mg  Mg12  1  0.50000000  0.75000000  0.63333300  1
  Mg  Mg13  1  0.25000000  0.00000000  0.68333300  1
  Mg  Mg14  1  1.00000000  0.75000000  0.73333300  1
  Mg  Mg15  1  1.00000000  0.25000000  0.73333300  1
  Mg  Mg16  1  0.50000000  0.25000000  0.63333300  1
  Mg  Mg17  1  0.75000000  0.00000000  0.68333300  1
  Mg  Mg18  1  0.50000000  0.75000000  0.43333300  1
  Mg  Mg19  1  0.25000000  0.00000000  0.48333300  1
  Mg  Mg20  1  0.00000000  0.75000000  0.53333300  1
  Mg  Mg21  1  0.25000000  0.50000000  0.58333300  1
  Mg  Mg22  1  1.00000000  0.25000000  0.53333300  1
  Mg  Mg23  1  0.75000000  0.50000000  0.58333300  1
  Mg  Mg24  1  0.50000000  0.25000000  0.43333300  1
  Mg  Mg25  1  0.75000000  0.00000000  0.48333300  1
  Mg  Mg26  1  0.50000000  0.75000000  0.23333300  1
  Mg  Mg27  1  0.25000000  0.00000000  0.28333300  1
  Mg  Mg28  1  0.00000000  0.75000000  0.33333300  1
  Mg  Mg29  1  0.25000000  0.50000000  0.38333300  1
  Mg  Mg30  1  1.00000000  0.25000000  0.33333300  1
  Mg  Mg31  1  0.75000000  0.50000000  0.38333300  1
  Mg  Mg32  1  0.50000000  0.25000000  0.23333300  1
  Mg  Mg33  1  0.75000000  0.00000000  0.28333300  1
