# generated using pymatgen
data_Mg20Au63
_symmetry_space_group_name_H-M   'P 1'
_cell_length_a   10.43041218
_cell_length_b   11.29953425
_cell_length_c   49.40543900
_cell_angle_alpha   85.63582371
_cell_angle_beta   88.14566253
_cell_angle_gamma   98.74753851
_symmetry_Int_Tables_number   1
_chemical_formula_structural   Mg20Au63
_chemical_formula_sum   'Mg40 Au126'
_cell_volume   5732.74310784
_cell_formula_units_Z   2
loop_
 _symmetry_equiv_pos_site_id
 _symmetry_equiv_pos_as_xyz
  1  'x, y, z'
loop_
 _atom_site_type_symbol
 _atom_site_label
 _atom_site_symmetry_multiplicity
 _atom_site_fract_x
 _atom_site_fract_y
 _atom_site_fract_z
 _atom_site_occupancy
  Mg  Mg0  1  0.29718100  0.95465900  0.64690900  1
  Mg  Mg1  1  0.82665800  0.88145800  0.67184100  1
  Mg  Mg2  1  0.77649800  0.53034000  0.62168200  1
  Mg  Mg3  1  0.34734100  0.30577600  0.69706800  1
  Mg  Mg4  1  0.01612500  0.58188000  0.68810100  1
  Mg  Mg5  1  0.10771400  0.25423600  0.63064900  1
  Mg  Mg6  1  0.48637800  0.65613100  0.66335100  1
  Mg  Mg7  1  0.63746100  0.17998600  0.65539900  1
  Mg  Mg8  1  0.19718100  0.25465900  0.54690900  1
  Mg  Mg9  1  0.72665800  0.18145800  0.57184100  1
  Mg  Mg10  1  0.67649800  0.83034000  0.52168200  1
  Mg  Mg11  1  0.24734100  0.60577600  0.59706800  1
  Mg  Mg12  1  0.91612500  0.88188000  0.58810100  1
  Mg  Mg13  1  0.00771400  0.55423600  0.53064900  1
  Mg  Mg14  1  0.38637800  0.95613100  0.56335100  1
  Mg  Mg15  1  0.53746100  0.47998600  0.55539900  1
  Mg  Mg16  1  0.09718100  0.55465900  0.44690900  1
  Mg  Mg17  1  0.62665800  0.48145800  0.47184100  1
  Mg  Mg18  1  0.57649800  0.13034000  0.42168200  1
  Mg  Mg19  1  0.14734100  0.90577600  0.49706800  1
  Mg  Mg20  1  0.81612500  0.18188000  0.48810100  1
  Mg  Mg21  1  0.90771400  0.85423600  0.43064900  1
  Mg  Mg22  1  0.28637800  0.25613100  0.46335100  1
  Mg  Mg23  1  0.43746100  0.77998600  0.45539900  1
  Mg  Mg24  1  0.99718100  0.85465900  0.34690900  1
  Mg  Mg25  1  0.52665800  0.78145800  0.37184100  1
  Mg  Mg26  1  0.47649800  0.43034000  0.32168200  1
  Mg  Mg27  1  0.04734100  0.20577600  0.39706800  1
  Mg  Mg28  1  0.71612500  0.48188000  0.38810100  1
  Mg  Mg29  1  0.80771400  0.15423600  0.33064900  1
  Mg  Mg30  1  0.18637800  0.55613100  0.36335100  1
  Mg  Mg31  1  0.33746100  0.07998600  0.35539900  1
  Mg  Mg32  1  0.89718100  0.15465900  0.24690900  1
  Mg  Mg33  1  0.42665800  0.08145800  0.27184100  1
  Mg  Mg34  1  0.37649800  0.73034000  0.22168200  1
  Mg  Mg35  1  0.94734100  0.50577600  0.29706800  1
  Mg  Mg36  1  0.61612500  0.78188000  0.28810100  1
  Mg  Mg37  1  0.70771400  0.45423600  0.23064900  1
  Mg  Mg38  1  0.08637800  0.85613100  0.26335100  1
  Mg  Mg39  1  0.23746100  0.37998600  0.25539900  1
  Au  Au40  1  0.27719000  0.54429500  0.70062900  1
  Au  Au41  1  0.94664900  0.99182100  0.71812100  1
  Au  Au42  1  0.61192000  0.76805800  0.70937500  1
  Au  Au43  1  0.61192000  0.26805800  0.70937500  1
  Au  Au44  1  0.53929400  0.50659100  0.71319700  1
  Au  Au45  1  0.68454500  0.02952500  0.70555300  1
  Au  Au46  1  0.08680700  0.34339500  0.68426300  1
  Au  Au47  1  0.08703200  0.84272200  0.68448700  1
  Au  Au48  1  0.03703200  0.49272200  0.63448700  1
  Au  Au49  1  0.03680700  0.99339500  0.63426300  1
  Au  Au50  1  0.82250200  0.38063100  0.67203400  1
  Au  Au51  1  0.30133700  0.45548500  0.64671600  1
  Au  Au52  1  0.35144700  0.80625400  0.69682600  1
  Au  Au53  1  0.77239200  0.02986200  0.62192400  1
  Au  Au54  1  0.37231200  0.21642200  0.64325400  1
  Au  Au55  1  0.70193500  0.76846800  0.62590500  1
  Au  Au56  1  0.75152700  0.61969400  0.67549600  1
  Au  Au57  1  0.42190400  0.06764800  0.69284500  1
  Au  Au58  1  0.89656000  0.14209000  0.66803100  1
  Au  Au59  1  0.17719000  0.84429500  0.60062900  1
  Au  Au60  1  0.22727900  0.69402600  0.65071900  1
  Au  Au61  1  0.84664900  0.29182100  0.61812100  1
  Au  Au62  1  0.56192000  0.91805800  0.65937500  1
  Au  Au63  1  0.51192000  0.06805800  0.60937500  1
  Au  Au64  1  0.51192000  0.56805800  0.60937500  1
  Au  Au65  1  0.56192000  0.41805800  0.65937500  1
  Au  Au66  1  0.43929400  0.80659100  0.61319700  1
  Au  Au67  1  0.58454500  0.32952500  0.60555300  1
  Au  Au68  1  0.95980900  0.73088300  0.63843300  1
  Au  Au69  1  0.16403000  0.10523400  0.68031700  1
  Au  Au70  1  0.98680700  0.64339500  0.58426300  1
  Au  Au71  1  0.98703200  0.14272200  0.58448700  1
  Au  Au72  1  0.93703200  0.79272200  0.53448700  1
  Au  Au73  1  0.93680700  0.29339500  0.53426300  1
  Au  Au74  1  0.72250200  0.68063100  0.57203400  1
  Au  Au75  1  0.20133700  0.75548500  0.54671600  1
  Au  Au76  1  0.25144700  0.10625400  0.59682600  1
  Au  Au77  1  0.67239200  0.32986200  0.52192400  1
  Au  Au78  1  0.27231200  0.51642200  0.54325400  1
  Au  Au79  1  0.60193500  0.06846800  0.52590500  1
  Au  Au80  1  0.65152700  0.91969400  0.57549600  1
  Au  Au81  1  0.32190400  0.36764800  0.59284500  1
  Au  Au82  1  0.79656000  0.44209000  0.56803100  1
  Au  Au83  1  0.07719000  0.14429500  0.50062900  1
  Au  Au84  1  0.12727900  0.99402600  0.55071900  1
  Au  Au85  1  0.74664900  0.59182100  0.51812100  1
  Au  Au86  1  0.46192000  0.21805800  0.55937500  1
  Au  Au87  1  0.41192000  0.36805800  0.50937500  1
  Au  Au88  1  0.41192000  0.86805800  0.50937500  1
  Au  Au89  1  0.46192000  0.71805800  0.55937500  1
  Au  Au90  1  0.33929400  0.10659100  0.51319700  1
  Au  Au91  1  0.48454500  0.62952500  0.50555300  1
  Au  Au92  1  0.85980900  0.03088300  0.53843300  1
  Au  Au93  1  0.06403000  0.40523400  0.58031700  1
  Au  Au94  1  0.88680700  0.94339500  0.48426300  1
  Au  Au95  1  0.88703200  0.44272200  0.48448700  1
  Au  Au96  1  0.83703200  0.09272200  0.43448700  1
  Au  Au97  1  0.83680700  0.59339500  0.43426300  1
  Au  Au98  1  0.62250200  0.98063100  0.47203400  1
  Au  Au99  1  0.10133700  0.05548500  0.44671600  1
  Au  Au100  1  0.15144700  0.40625400  0.49682600  1
  Au  Au101  1  0.57239200  0.62986200  0.42192400  1
  Au  Au102  1  0.17231200  0.81642200  0.44325400  1
  Au  Au103  1  0.50193500  0.36846800  0.42590500  1
  Au  Au104  1  0.55152700  0.21969400  0.47549600  1
  Au  Au105  1  0.22190400  0.66764800  0.49284500  1
  Au  Au106  1  0.69656000  0.74209000  0.46803100  1
  Au  Au107  1  0.97719000  0.44429500  0.40062900  1
  Au  Au108  1  0.02727900  0.29402600  0.45071900  1
  Au  Au109  1  0.64664900  0.89182100  0.41812100  1
  Au  Au110  1  0.36192000  0.51805800  0.45937500  1
  Au  Au111  1  0.31192000  0.66805800  0.40937500  1
  Au  Au112  1  0.31192000  0.16805800  0.40937500  1
  Au  Au113  1  0.36192000  0.01805800  0.45937500  1
  Au  Au114  1  0.23929400  0.40659100  0.41319700  1
  Au  Au115  1  0.38454500  0.92952500  0.40555300  1
  Au  Au116  1  0.75980900  0.33088300  0.43843300  1
  Au  Au117  1  0.96403000  0.70523400  0.48031700  1
  Au  Au118  1  0.78680700  0.24339500  0.38426300  1
  Au  Au119  1  0.78703200  0.74272200  0.38448700  1
  Au  Au120  1  0.73703200  0.39272200  0.33448700  1
  Au  Au121  1  0.73680700  0.89339500  0.33426300  1
  Au  Au122  1  0.52250200  0.28063100  0.37203400  1
  Au  Au123  1  0.00133700  0.35548500  0.34671600  1
  Au  Au124  1  0.05144700  0.70625400  0.39682600  1
  Au  Au125  1  0.47239200  0.92986200  0.32192400  1
  Au  Au126  1  0.07231200  0.11642200  0.34325400  1
  Au  Au127  1  0.40193500  0.66846800  0.32590500  1
  Au  Au128  1  0.45152700  0.51969400  0.37549600  1
  Au  Au129  1  0.12190400  0.96764800  0.39284500  1
  Au  Au130  1  0.59656000  0.04209000  0.36803100  1
  Au  Au131  1  0.87719000  0.74429500  0.30062900  1
  Au  Au132  1  0.92727900  0.59402600  0.35071900  1
  Au  Au133  1  0.54664900  0.19182100  0.31812100  1
  Au  Au134  1  0.26192000  0.81805800  0.35937500  1
  Au  Au135  1  0.21192000  0.96805800  0.30937500  1
  Au  Au136  1  0.21192000  0.46805800  0.30937500  1
  Au  Au137  1  0.26192000  0.31805800  0.35937500  1
  Au  Au138  1  0.13929400  0.70659100  0.31319700  1
  Au  Au139  1  0.28454500  0.22952500  0.30555300  1
  Au  Au140  1  0.65980900  0.63088300  0.33843300  1
  Au  Au141  1  0.86403000  0.00523400  0.38031700  1
  Au  Au142  1  0.68680700  0.54339500  0.28426300  1
  Au  Au143  1  0.68703200  0.04272200  0.28448700  1
  Au  Au144  1  0.63703200  0.69272200  0.23448700  1
  Au  Au145  1  0.63680700  0.19339500  0.23426300  1
  Au  Au146  1  0.42250200  0.58063100  0.27203400  1
  Au  Au147  1  0.90133700  0.65548500  0.24671600  1
  Au  Au148  1  0.95144700  0.00625400  0.29682600  1
  Au  Au149  1  0.37239200  0.22986200  0.22192400  1
  Au  Au150  1  0.97231200  0.41642200  0.24325400  1
  Au  Au151  1  0.30193500  0.96846800  0.22590500  1
  Au  Au152  1  0.35152700  0.81969400  0.27549600  1
  Au  Au153  1  0.02190400  0.26764800  0.29284500  1
  Au  Au154  1  0.49656000  0.34209000  0.26803100  1
  Au  Au155  1  0.77719000  0.04429500  0.20062900  1
  Au  Au156  1  0.82727900  0.89402600  0.25071900  1
  Au  Au157  1  0.44664900  0.49182100  0.21812100  1
  Au  Au158  1  0.16192000  0.11805800  0.25937500  1
  Au  Au159  1  0.11192000  0.26805800  0.20937500  1
  Au  Au160  1  0.11192000  0.76805800  0.20937500  1
  Au  Au161  1  0.16192000  0.61805800  0.25937500  1
  Au  Au162  1  0.03929400  0.00659100  0.21319700  1
  Au  Au163  1  0.18454500  0.52952500  0.20555300  1
  Au  Au164  1  0.55980900  0.93088300  0.23843300  1
  Au  Au165  1  0.76403000  0.30523400  0.28031700  1
