# generated using pymatgen
data_Mg61Zn108
_symmetry_space_group_name_H-M   'P 1'
_cell_length_a   15.05205963
_cell_length_b   15.58232832
_cell_length_c   44.40935000
_cell_angle_alpha   95.28205411
_cell_angle_beta   87.96000798
_cell_angle_gamma   92.33702888
_symmetry_Int_Tables_number   1
_chemical_formula_structural   Mg61Zn108
_chemical_formula_sum   'Mg122 Zn216'
_cell_volume   10357.87463183
_cell_formula_units_Z   2
loop_
 _symmetry_equiv_pos_site_id
 _symmetry_equiv_pos_as_xyz
  1  'x, y, z'
loop_
 _atom_site_type_symbol
 _atom_site_label
 _atom_site_symmetry_multiplicity
 _atom_site_fract_x
 _atom_site_fract_y
 _atom_site_fract_z
 _atom_site_occupancy
  Mg  Mg0  1  0.73256400  0.89160000  0.19066900  1
  Mg  Mg1  1  0.99884100  0.67822900  0.21764400  1
  Mg  Mg2  1  0.45918900  0.27702200  0.25774300  1
  Mg  Mg3  1  0.73006700  0.87951500  0.25935100  1
  Mg  Mg4  1  0.85637500  0.54568300  0.23892000  1
  Mg  Mg5  1  0.39922900  0.94179200  0.26870900  1
  Mg  Mg6  1  0.67821100  0.55638300  0.20261000  1
  Mg  Mg7  1  0.06418800  0.01761200  0.20841700  1
  Mg  Mg8  1  0.51466400  0.61183400  0.24679800  1
  Mg  Mg9  1  0.93787900  0.35144400  0.22884900  1
  Mg  Mg10  1  0.33506600  0.62010500  0.21002600  1
  Mg  Mg11  1  0.27959100  0.28529300  0.22097100  1
  Mg  Mg12  1  0.92405900  0.86013700  0.22722300  1
  Mg  Mg13  1  0.61983900  0.22029200  0.21332700  1
  Mg  Mg14  1  0.17441600  0.67683500  0.25444200  1
  Mg  Mg15  1  0.11604300  0.34074500  0.26515900  1
  Mg  Mg16  1  0.24350900  0.09643700  0.18619100  1
  Mg  Mg17  1  0.39502600  0.95533500  0.19905900  1
  Mg  Mg18  1  0.79541300  0.21889900  0.25012400  1
  Mg  Mg19  1  0.87019600  0.03699100  0.24054600  1
  Mg  Mg20  1  0.55074600  0.80069100  0.28157800  1
  Mg  Mg21  1  0.81702300  0.58731900  0.30855400  1
  Mg  Mg22  1  0.27737100  0.18611300  0.34865200  1
  Mg  Mg23  1  0.54824800  0.78860600  0.35026000  1
  Mg  Mg24  1  0.67455700  0.45477400  0.32982900  1
  Mg  Mg25  1  0.21741100  0.85088300  0.35961800  1
  Mg  Mg26  1  0.49639300  0.46547300  0.29351900  1
  Mg  Mg27  1  0.88237000  0.92670300  0.29932700  1
  Mg  Mg28  1  0.33284500  0.52092500  0.33770700  1
  Mg  Mg29  1  0.75606100  0.26053500  0.31975800  1
  Mg  Mg30  1  0.15324700  0.52919600  0.30093500  1
  Mg  Mg31  1  0.09777300  0.19438400  0.31188000  1
  Mg  Mg32  1  0.74224100  0.76922800  0.31813200  1
  Mg  Mg33  1  0.43802100  0.12938300  0.30423600  1
  Mg  Mg34  1  0.99259800  0.58592600  0.34535100  1
  Mg  Mg35  1  0.93422500  0.24983600  0.35606800  1
  Mg  Mg36  1  0.06169000  0.00552800  0.27710000  1
  Mg  Mg37  1  0.21320800  0.86442600  0.28996800  1
  Mg  Mg38  1  0.61359500  0.12799000  0.34103300  1
  Mg  Mg39  1  0.68837800  0.94608200  0.33145500  1
  Mg  Mg40  1  0.36892800  0.70978100  0.37248700  1
  Mg  Mg41  1  0.63520500  0.49641000  0.39946300  1
  Mg  Mg42  1  0.09555300  0.09520400  0.43956100  1
  Mg  Mg43  1  0.36643000  0.69769700  0.44116900  1
  Mg  Mg44  1  0.49273900  0.36386500  0.42073800  1
  Mg  Mg45  1  0.03559200  0.75997400  0.45052700  1
  Mg  Mg46  1  0.31457500  0.37456400  0.38442800  1
  Mg  Mg47  1  0.70055200  0.83579400  0.39023600  1
  Mg  Mg48  1  0.15102700  0.43001600  0.42861600  1
  Mg  Mg49  1  0.57424300  0.16962600  0.41066700  1
  Mg  Mg50  1  0.97142900  0.43828700  0.39184400  1
  Mg  Mg51  1  0.91595500  0.10347500  0.40278900  1
  Mg  Mg52  1  0.56042200  0.67831800  0.40904100  1
  Mg  Mg53  1  0.25620200  0.03847400  0.39514500  1
  Mg  Mg54  1  0.81078000  0.49501700  0.43626000  1
  Mg  Mg55  1  0.75240700  0.15892700  0.44697700  1
  Mg  Mg56  1  0.87987200  0.91461900  0.36800900  1
  Mg  Mg57  1  0.03139000  0.77351700  0.38087700  1
  Mg  Mg58  1  0.43177700  0.03708100  0.43194200  1
  Mg  Mg59  1  0.50656000  0.85517300  0.42236400  1
  Mg  Mg60  1  0.18711000  0.61887200  0.46339600  1
  Mg  Mg61  1  0.45338700  0.40550100  0.49037200  1
  Mg  Mg62  1  0.91373500  0.00429500  0.53047000  1
  Mg  Mg63  1  0.18461200  0.60678800  0.53207800  1
  Mg  Mg64  1  0.31092100  0.27295600  0.51164700  1
  Mg  Mg65  1  0.85377400  0.66906500  0.54143700  1
  Mg  Mg66  1  0.13275700  0.28365500  0.47533700  1
  Mg  Mg67  1  0.51873400  0.74488500  0.48114500  1
  Mg  Mg68  1  0.96920900  0.33910700  0.51952500  1
  Mg  Mg69  1  0.39242500  0.07871700  0.50157600  1
  Mg  Mg70  1  0.78961100  0.34737800  0.48275300  1
  Mg  Mg71  1  0.73413700  0.01256600  0.49369800  1
  Mg  Mg72  1  0.37860400  0.58740900  0.49995000  1
  Mg  Mg73  1  0.07438400  0.94756500  0.48605400  1
  Mg  Mg74  1  0.62896100  0.40410800  0.52716900  1
  Mg  Mg75  1  0.57058900  0.06801800  0.53788600  1
  Mg  Mg76  1  0.69805400  0.82371000  0.45891800  1
  Mg  Mg77  1  0.84957100  0.68260800  0.47178700  1
  Mg  Mg78  1  0.24995900  0.94617200  0.52285100  1
  Mg  Mg79  1  0.32474100  0.76426300  0.51327300  1
  Mg  Mg80  1  0.00529200  0.52796300  0.55430500  1
  Mg  Mg81  1  0.27156900  0.31459200  0.58128100  1
  Mg  Mg82  1  0.73191600  0.91338600  0.62137900  1
  Mg  Mg83  1  0.00279400  0.51587900  0.62298800  1
  Mg  Mg84  1  0.12910300  0.18204700  0.60255600  1
  Mg  Mg85  1  0.67195600  0.57815600  0.63234600  1
  Mg  Mg86  1  0.95093900  0.19274600  0.56624600  1
  Mg  Mg87  1  0.33691500  0.65397600  0.57205400  1
  Mg  Mg88  1  0.78739100  0.24819800  0.61043400  1
  Mg  Mg89  1  0.21060700  0.98780800  0.59248500  1
  Mg  Mg90  1  0.60779300  0.25646900  0.57366200  1
  Mg  Mg91  1  0.55231800  0.92165700  0.58460700  1
  Mg  Mg92  1  0.19678600  0.49650000  0.59085900  1
  Mg  Mg93  1  0.89256600  0.85665600  0.57696300  1
  Mg  Mg94  1  0.44714300  0.31319900  0.61807800  1
  Mg  Mg95  1  0.38877100  0.97710900  0.62879500  1
  Mg  Mg96  1  0.51623600  0.73280000  0.54982700  1
  Mg  Mg97  1  0.66775300  0.59169900  0.56269600  1
  Mg  Mg98  1  0.06814100  0.85526200  0.61376000  1
  Mg  Mg99  1  0.14292300  0.67335400  0.60418200  1
  Mg  Mg100  1  0.82347300  0.43705400  0.64521400  1
  Mg  Mg101  1  0.08975000  0.22368300  0.67219000  1
  Mg  Mg102  1  0.55009800  0.82247700  0.71228800  1
  Mg  Mg103  1  0.82097600  0.42496900  0.71389700  1
  Mg  Mg104  1  0.94728500  0.09113800  0.69346500  1
  Mg  Mg105  1  0.49013800  0.48724700  0.72325500  1
  Mg  Mg106  1  0.76912100  0.10183700  0.65715500  1
  Mg  Mg107  1  0.15509700  0.56306700  0.66296300  1
  Mg  Mg108  1  0.60557300  0.15728900  0.70134300  1
  Mg  Mg109  1  0.02878800  0.89689900  0.68339400  1
  Mg  Mg110  1  0.42597500  0.16556000  0.66457100  1
  Mg  Mg111  1  0.37050000  0.83074700  0.67551600  1
  Mg  Mg112  1  0.01496800  0.40559100  0.68176800  1
  Mg  Mg113  1  0.71074800  0.76574600  0.66787200  1
  Mg  Mg114  1  0.26532500  0.22229000  0.70898700  1
  Mg  Mg115  1  0.20695200  0.88619900  0.71970400  1
  Mg  Mg116  1  0.33441800  0.64189100  0.64073600  1
  Mg  Mg117  1  0.48593500  0.50079000  0.65360500  1
  Mg  Mg118  1  0.88632300  0.76435300  0.70467000  1
  Mg  Mg119  1  0.96110500  0.58244500  0.69509100  1
  Mg  Mg120  1  0.64165500  0.34614500  0.73612300  1
  Mg  Mg121  1  0.15259900  0.55098200  0.73164500  1
  Zn  Zn122  1  0.67902400  0.50719900  0.26753900  1
  Zn  Zn123  1  0.86529300  0.73215500  0.26768000  1
  Zn  Zn124  1  0.33258500  0.57235000  0.27295000  1
  Zn  Zn125  1  0.00258400  0.17723700  0.25352200  1
  Zn  Zn126  1  0.05761000  0.51628600  0.24292600  1
  Zn  Zn127  1  0.70331300  0.67244500  0.26047200  1
  Zn  Zn128  1  0.48803600  0.49401800  0.18843000  1
  Zn  Zn129  1  0.11523100  0.38992800  0.20023000  1
  Zn  Zn130  1  0.28581300  0.81832900  0.22702500  1
  Zn  Zn131  1  0.64431700  0.33475200  0.27081900  1
  Zn  Zn132  1  0.45087400  0.78447700  0.22244800  1
  Zn  Zn133  1  0.56461400  0.91609700  0.22954700  1
  Zn  Zn134  1  0.56727000  0.41856300  0.23028400  1
  Zn  Zn135  1  0.80133800  0.26388300  0.18618800  1
  Zn  Zn136  1  0.92896100  0.16497200  0.20008900  1
  Zn  Zn137  1  0.50844200  0.07879900  0.24074300  1
  Zn  Zn138  1  0.68125100  0.04613400  0.23597100  1
  Zn  Zn139  1  0.14993800  0.56237500  0.19695000  1
  Zn  Zn140  1  0.09094200  0.22468200  0.20729700  1
  Zn  Zn141  1  0.22698500  0.47856400  0.23748500  1
  Zn  Zn142  1  0.11300300  0.85099300  0.23179800  1
  Zn  Zn143  1  0.73664500  0.38084100  0.22484300  1
  Zn  Zn144  1  0.39712700  0.44856400  0.23388400  1
  Zn  Zn145  1  0.62411100  0.74803100  0.21895500  1
  Zn  Zn146  1  0.35951400  0.74007500  0.26737500  1
  Zn  Zn147  1  0.77197600  0.08835800  0.19192900  1
  Zn  Zn148  1  0.17014300  0.14909700  0.24881400  1
  Zn  Zn149  1  0.20409700  0.89967900  0.18493000  1
  Zn  Zn150  1  0.17473400  0.72415400  0.19067100  1
  Zn  Zn151  1  0.43474100  0.15705200  0.20039300  1
  Zn  Zn152  1  0.79167100  0.71989100  0.21424600  1
  Zn  Zn153  1  0.98803600  0.49401800  0.18843000  1
  Zn  Zn154  1  0.34338000  0.11265100  0.24532100  1
  Zn  Zn155  1  0.22964000  0.98103000  0.23822200  1
  Zn  Zn156  1  0.46167000  0.32477700  0.19481900  1
  Zn  Zn157  1  0.49720600  0.41629000  0.35844800  1
  Zn  Zn158  1  0.68347500  0.64124600  0.35858900  1
  Zn  Zn159  1  0.15076700  0.48144100  0.36385900  1
  Zn  Zn160  1  0.82076500  0.08632800  0.34443100  1
  Zn  Zn161  1  0.87579200  0.42537700  0.33383500  1
  Zn  Zn162  1  0.52149500  0.58153600  0.35138100  1
  Zn  Zn163  1  0.30621800  0.40310900  0.27933900  1
  Zn  Zn164  1  0.93341300  0.29901900  0.29113900  1
  Zn  Zn165  1  0.10399500  0.72742000  0.31793400  1
  Zn  Zn166  1  0.46249900  0.24384300  0.36172800  1
  Zn  Zn167  1  0.26905600  0.69356800  0.31335700  1
  Zn  Zn168  1  0.38279600  0.82518800  0.32045600  1
  Zn  Zn169  1  0.38545200  0.32765400  0.32119300  1
  Zn  Zn170  1  0.61952000  0.17297400  0.27709700  1
  Zn  Zn171  1  0.74714300  0.07406300  0.29099800  1
  Zn  Zn172  1  0.32662400  0.98788900  0.33165200  1
  Zn  Zn173  1  0.49943300  0.95522500  0.32688000  1
  Zn  Zn174  1  0.96812000  0.47146600  0.28785900  1
  Zn  Zn175  1  0.90912300  0.13377300  0.29820600  1
  Zn  Zn176  1  0.04516700  0.38765500  0.32839400  1
  Zn  Zn177  1  0.93118500  0.76008400  0.32270700  1
  Zn  Zn178  1  0.55482700  0.28993200  0.31575200  1
  Zn  Zn179  1  0.21530900  0.35765500  0.32479300  1
  Zn  Zn180  1  0.44229300  0.65712200  0.30986400  1
  Zn  Zn181  1  0.17769600  0.64916600  0.35828400  1
  Zn  Zn182  1  0.59015800  0.99744800  0.28283800  1
  Zn  Zn183  1  0.98832500  0.05818700  0.33972300  1
  Zn  Zn184  1  0.02227900  0.80877000  0.27584000  1
  Zn  Zn185  1  0.99291600  0.63324500  0.28158000  1
  Zn  Zn186  1  0.25292300  0.06614300  0.29130200  1
  Zn  Zn187  1  0.60985300  0.62898200  0.30515600  1
  Zn  Zn188  1  0.80621800  0.40310900  0.27933900  1
  Zn  Zn189  1  0.16156200  0.02174200  0.33623000  1
  Zn  Zn190  1  0.04782200  0.89012100  0.32913100  1
  Zn  Zn191  1  0.27985200  0.23386800  0.28572800  1
  Zn  Zn192  1  0.31538700  0.32538100  0.44935700  1
  Zn  Zn193  1  0.50165700  0.55033700  0.44949800  1
  Zn  Zn194  1  0.96894800  0.39053200  0.45476800  1
  Zn  Zn195  1  0.63894700  0.99541800  0.43534000  1
  Zn  Zn196  1  0.69397400  0.33446800  0.42474400  1
  Zn  Zn197  1  0.33967700  0.49062700  0.44229000  1
  Zn  Zn198  1  0.12440000  0.31220000  0.37024800  1
  Zn  Zn199  1  0.75159500  0.20811000  0.38204800  1
  Zn  Zn200  1  0.92217600  0.63651100  0.40884300  1
  Zn  Zn201  1  0.28068000  0.15293400  0.45263700  1
  Zn  Zn202  1  0.08723800  0.60265900  0.40426600  1
  Zn  Zn203  1  0.20097800  0.73427900  0.41136500  1
  Zn  Zn204  1  0.20363300  0.23674500  0.41210200  1
  Zn  Zn205  1  0.43770200  0.08206400  0.36800600  1
  Zn  Zn206  1  0.56532500  0.98315400  0.38190700  1
  Zn  Zn207  1  0.14480600  0.89698000  0.42256100  1
  Zn  Zn208  1  0.31761500  0.86431600  0.41778900  1
  Zn  Zn209  1  0.78630200  0.38055700  0.37876800  1
  Zn  Zn210  1  0.72730500  0.04286400  0.38911500  1
  Zn  Zn211  1  0.86334900  0.29674600  0.41930300  1
  Zn  Zn212  1  0.74936700  0.66917500  0.41361600  1
  Zn  Zn213  1  0.37300900  0.19902300  0.40666100  1
  Zn  Zn214  1  0.03349100  0.26674600  0.41570200  1
  Zn  Zn215  1  0.26047500  0.56621300  0.40077300  1
  Zn  Zn216  1  0.99587700  0.55825700  0.44919300  1
  Zn  Zn217  1  0.40833900  0.90653900  0.37374700  1
  Zn  Zn218  1  0.80650700  0.96727800  0.43063200  1
  Zn  Zn219  1  0.84046100  0.71786100  0.36674900  1
  Zn  Zn220  1  0.81109800  0.54233600  0.37249000  1
  Zn  Zn221  1  0.07110500  0.97523400  0.38221100  1
  Zn  Zn222  1  0.42803500  0.53807300  0.39606500  1
  Zn  Zn223  1  0.62440000  0.31220000  0.37024800  1
  Zn  Zn224  1  0.97974400  0.93083200  0.42713900  1
  Zn  Zn225  1  0.86600400  0.79921200  0.42004000  1
  Zn  Zn226  1  0.09803400  0.14295900  0.37663700  1
  Zn  Zn227  1  0.13356900  0.23447200  0.54026600  1
  Zn  Zn228  1  0.31983900  0.45942800  0.54040700  1
  Zn  Zn229  1  0.78713000  0.29962300  0.54567700  1
  Zn  Zn230  1  0.45712900  0.90450900  0.52624900  1
  Zn  Zn231  1  0.51215500  0.24355900  0.51565300  1
  Zn  Zn232  1  0.15785900  0.39971800  0.53319900  1
  Zn  Zn233  1  0.94258200  0.22129100  0.46115700  1
  Zn  Zn234  1  0.56977600  0.11720100  0.47295700  1
  Zn  Zn235  1  0.74035800  0.54560200  0.49975300  1
  Zn  Zn236  1  0.09886200  0.06202500  0.54354600  1
  Zn  Zn237  1  0.90542000  0.51175000  0.49517500  1
  Zn  Zn238  1  0.01916000  0.64337000  0.50227400  1
  Zn  Zn239  1  0.02181500  0.14583600  0.50301100  1
  Zn  Zn240  1  0.25588400  0.99115500  0.45891500  1
  Zn  Zn241  1  0.38350700  0.89224500  0.47281600  1
  Zn  Zn242  1  0.96298700  0.80607100  0.51347100  1
  Zn  Zn243  1  0.13579700  0.77340700  0.50869800  1
  Zn  Zn244  1  0.60448400  0.28964800  0.46967700  1
  Zn  Zn245  1  0.54548700  0.95195500  0.48002400  1
  Zn  Zn246  1  0.68153000  0.20583700  0.51021200  1
  Zn  Zn247  1  0.56754900  0.57826600  0.50452500  1
  Zn  Zn248  1  0.19119000  0.10811400  0.49757000  1
  Zn  Zn249  1  0.85167300  0.17583600  0.50661200  1
  Zn  Zn250  1  0.07865700  0.47530400  0.49168200  1
  Zn  Zn251  1  0.81405900  0.46734800  0.54010300  1
  Zn  Zn252  1  0.22652100  0.81563000  0.46465600  1
  Zn  Zn253  1  0.62468900  0.87636900  0.52154100  1
  Zn  Zn254  1  0.65864300  0.62695200  0.45765800  1
  Zn  Zn255  1  0.62928000  0.45142700  0.46339900  1
  Zn  Zn256  1  0.88928600  0.88432500  0.47312100  1
  Zn  Zn257  1  0.24621700  0.44716300  0.48697400  1
  Zn  Zn258  1  0.44258200  0.22129100  0.46115700  1
  Zn  Zn259  1  0.79792600  0.83992300  0.51804800  1
  Zn  Zn260  1  0.68418600  0.70830300  0.51094900  1
  Zn  Zn261  1  0.91621600  0.05205000  0.46754600  1
  Zn  Zn262  1  0.95175100  0.14356300  0.63117500  1
  Zn  Zn263  1  0.13802100  0.36851900  0.63131600  1
  Zn  Zn264  1  0.60531200  0.20871400  0.63658600  1
  Zn  Zn265  1  0.27531100  0.81360000  0.61715800  1
  Zn  Zn266  1  0.33033700  0.15265000  0.60656200  1
  Zn  Zn267  1  0.97604000  0.30880900  0.62410800  1
  Zn  Zn268  1  0.76076400  0.13038200  0.55206600  1
  Zn  Zn269  1  0.38795800  0.02629200  0.56386600  1
  Zn  Zn270  1  0.55854000  0.45469300  0.59066200  1
  Zn  Zn271  1  0.91704400  0.97111600  0.63445500  1
  Zn  Zn272  1  0.72360200  0.42084000  0.58608400  1
  Zn  Zn273  1  0.83734200  0.55246100  0.59318300  1
  Zn  Zn274  1  0.83999700  0.05492700  0.59392000  1
  Zn  Zn275  1  0.07406600  0.90024600  0.54982400  1
  Zn  Zn276  1  0.20168900  0.80133600  0.56372500  1
  Zn  Zn277  1  0.78116900  0.71516200  0.60438000  1
  Zn  Zn278  1  0.95397900  0.68249800  0.59960700  1
  Zn  Zn279  1  0.42266500  0.19873900  0.56058600  1
  Zn  Zn280  1  0.36366900  0.86104600  0.57093300  1
  Zn  Zn281  1  0.49971200  0.11492800  0.60112100  1
  Zn  Zn282  1  0.38573100  0.48735700  0.59543400  1
  Zn  Zn283  1  0.00937200  0.01720500  0.58847900  1
  Zn  Zn284  1  0.66985500  0.08492700  0.59752100  1
  Zn  Zn285  1  0.89683900  0.38439400  0.58259100  1
  Zn  Zn286  1  0.63224100  0.37643900  0.63101200  1
  Zn  Zn287  1  0.04470300  0.72472100  0.55556500  1
  Zn  Zn288  1  0.44287100  0.78546000  0.61245000  1
  Zn  Zn289  1  0.47682400  0.53604300  0.54856700  1
  Zn  Zn290  1  0.44746200  0.36051700  0.55430800  1
  Zn  Zn291  1  0.70746800  0.79341600  0.56403000  1
  Zn  Zn292  1  0.06439900  0.35625400  0.57788300  1
  Zn  Zn293  1  0.26076400  0.13038200  0.55206600  1
  Zn  Zn294  1  0.61610800  0.74901400  0.60895700  1
  Zn  Zn295  1  0.50236800  0.61739400  0.60185800  1
  Zn  Zn296  1  0.73439700  0.96114100  0.55845500  1
  Zn  Zn297  1  0.76993300  0.05265400  0.72208400  1
  Zn  Zn298  1  0.95620200  0.27761000  0.72222600  1
  Zn  Zn299  1  0.42349400  0.11780500  0.72749500  1
  Zn  Zn300  1  0.09349300  0.72269100  0.70806800  1
  Zn  Zn301  1  0.14851900  0.06174100  0.69747100  1
  Zn  Zn302  1  0.79422200  0.21789900  0.71501700  1
  Zn  Zn303  1  0.57894600  0.03947300  0.64297500  1
  Zn  Zn304  1  0.20614000  0.93538300  0.65477500  1
  Zn  Zn305  1  0.37672200  0.36378300  0.68157100  1
  Zn  Zn306  1  0.73522600  0.88020700  0.72536400  1
  Zn  Zn307  1  0.54178400  0.32993100  0.67699300  1
  Zn  Zn308  1  0.65552300  0.46155200  0.68409200  1
  Zn  Zn309  1  0.65817900  0.96401700  0.68482900  1
  Zn  Zn310  1  0.89224800  0.80933700  0.64073400  1
  Zn  Zn311  1  0.01987000  0.71042700  0.65463400  1
  Zn  Zn312  1  0.59935100  0.62425300  0.69528900  1
  Zn  Zn313  1  0.77216000  0.59158900  0.69051600  1
  Zn  Zn314  1  0.24084700  0.10783000  0.65149600  1
  Zn  Zn315  1  0.18185100  0.77013700  0.66184200  1
  Zn  Zn316  1  0.31789400  0.02401900  0.69203000  1
  Zn  Zn317  1  0.20391200  0.39644800  0.68634300  1
  Zn  Zn318  1  0.82755400  0.92629500  0.67938800  1
  Zn  Zn319  1  0.48803600  0.99401800  0.68843000  1
  Zn  Zn320  1  0.71502100  0.29348500  0.67350000  1
  Zn  Zn321  1  0.45042300  0.28552900  0.72192100  1
  Zn  Zn322  1  0.86288500  0.63381200  0.64647400  1
  Zn  Zn323  1  0.26105200  0.69455100  0.70335900  1
  Zn  Zn324  1  0.29500600  0.44513300  0.63947600  1
  Zn  Zn325  1  0.26564400  0.26960800  0.64521700  1
  Zn  Zn326  1  0.52565000  0.70250700  0.65493900  1
  Zn  Zn327  1  0.88258000  0.26534500  0.66879200  1
  Zn  Zn328  1  0.07894600  0.03947300  0.64297500  1
  Zn  Zn329  1  0.43428900  0.65810500  0.69986700  1
  Zn  Zn330  1  0.32055000  0.52648500  0.69276700  1
  Zn  Zn331  1  0.55257900  0.87023200  0.64936400  1
  Zn  Zn332  1  0.39712700  0.94856400  0.73388400  1
  Zn  Zn333  1  0.71042900  0.71842800  0.73164300  1
  Zn  Zn334  1  0.68106700  0.54290300  0.73738400  1
  Zn  Zn335  1  0.11318800  0.35422400  0.73038500  1
  Zn  Zn336  1  0.08382500  0.17869900  0.73612600  1
  Zn  Zn337  1  0.89712700  0.94856400  0.73388400  1
