# generated using pymatgen
data_MgSe2
_symmetry_space_group_name_H-M   'P 1'
_cell_length_a   6.51982800
_cell_length_b   9.22043000
_cell_length_c   46.10214800
_cell_angle_alpha   90.00000000
_cell_angle_beta   90.00000000
_cell_angle_gamma   90.00000000
_symmetry_Int_Tables_number   1
_chemical_formula_structural   MgSe2
_chemical_formula_sum   'Mg22 Se44'
_cell_volume   2771.45910367
_cell_formula_units_Z   22
loop_
 _symmetry_equiv_pos_site_id
 _symmetry_equiv_pos_as_xyz
  1  'x, y, z'
loop_
 _atom_site_type_symbol
 _atom_site_label
 _atom_site_symmetry_multiplicity
 _atom_site_fract_x
 _atom_site_fract_y
 _atom_site_fract_z
 _atom_site_occupancy
  Mg  Mg0  1  1.00000000  0.12500000  0.27500000  1
  Mg  Mg1  1  0.50000000  0.87500000  0.22500000  1
  Mg  Mg2  1  0.50000000  0.37500000  0.22500000  1
  Mg  Mg3  1  0.00000000  0.62500000  0.27500000  1
  Mg  Mg4  1  0.00000000  0.62500000  0.37500000  1
  Mg  Mg5  1  0.50000000  0.37500000  0.32500000  1
  Mg  Mg6  1  0.50000000  0.87500000  0.32500000  1
  Mg  Mg7  1  0.00000000  0.12500000  0.37500000  1
  Mg  Mg8  1  0.00000000  0.12500000  0.47500000  1
  Mg  Mg9  1  0.50000000  0.87500000  0.42500000  1
  Mg  Mg10  1  0.50000000  0.37500000  0.42500000  1
  Mg  Mg11  1  0.00000000  0.62500000  0.47500000  1
  Mg  Mg12  1  0.00000000  0.62500000  0.57500000  1
  Mg  Mg13  1  0.50000000  0.37500000  0.52500000  1
  Mg  Mg14  1  0.50000000  0.87500000  0.52500000  1
  Mg  Mg15  1  0.00000000  0.12500000  0.57500000  1
  Mg  Mg16  1  0.00000000  0.12500000  0.67500000  1
  Mg  Mg17  1  0.50000000  0.87500000  0.62500000  1
  Mg  Mg18  1  0.50000000  0.37500000  0.62500000  1
  Mg  Mg19  1  0.00000000  0.62500000  0.67500000  1
  Mg  Mg20  1  0.50000000  0.37500000  0.72500000  1
  Mg  Mg21  1  0.50000000  0.87500000  0.72500000  1
  Se  Se22  1  0.60648900  0.73148900  0.27500000  1
  Se  Se23  1  0.89351100  0.37500000  0.24629800  1
  Se  Se24  1  0.10648900  0.76851100  0.22500000  1
  Se  Se25  1  0.39351100  0.12500000  0.25370200  1
  Se  Se26  1  0.39351100  0.51851100  0.27500000  1
  Se  Se27  1  0.10648900  0.37500000  0.20370200  1
  Se  Se28  1  0.89351100  0.98148900  0.22500000  1
  Se  Se29  1  0.60648900  0.12500000  0.29629800  1
  Se  Se30  1  0.60648900  0.23148900  0.37500000  1
  Se  Se31  1  0.89351100  0.87500000  0.34629800  1
  Se  Se32  1  0.10648900  0.26851100  0.32500000  1
  Se  Se33  1  0.39351100  0.62500000  0.35370200  1
  Se  Se34  1  0.39351100  0.01851100  0.37500000  1
  Se  Se35  1  0.10648900  0.87500000  0.30370200  1
  Se  Se36  1  0.89351100  0.48148900  0.32500000  1
  Se  Se37  1  0.60648900  0.62500000  0.39629800  1
  Se  Se38  1  0.60648900  0.73148900  0.47500000  1
  Se  Se39  1  0.89351100  0.37500000  0.44629800  1
  Se  Se40  1  0.10648900  0.76851100  0.42500000  1
  Se  Se41  1  0.39351100  0.12500000  0.45370200  1
  Se  Se42  1  0.39351100  0.51851100  0.47500000  1
  Se  Se43  1  0.10648900  0.37500000  0.40370200  1
  Se  Se44  1  0.89351100  0.98148900  0.42500000  1
  Se  Se45  1  0.60648900  0.12500000  0.49629800  1
  Se  Se46  1  0.60648900  0.23148900  0.57500000  1
  Se  Se47  1  0.89351100  0.87500000  0.54629800  1
  Se  Se48  1  0.10648900  0.26851100  0.52500000  1
  Se  Se49  1  0.39351100  0.62500000  0.55370200  1
  Se  Se50  1  0.39351100  0.01851100  0.57500000  1
  Se  Se51  1  0.10648900  0.87500000  0.50370200  1
  Se  Se52  1  0.89351100  0.48148900  0.52500000  1
  Se  Se53  1  0.60648900  0.62500000  0.59629800  1
  Se  Se54  1  0.60648900  0.73148900  0.67500000  1
  Se  Se55  1  0.89351100  0.37500000  0.64629800  1
  Se  Se56  1  0.10648900  0.76851100  0.62500000  1
  Se  Se57  1  0.39351100  0.12500000  0.65370200  1
  Se  Se58  1  0.39351100  0.51851100  0.67500000  1
  Se  Se59  1  0.10648900  0.37500000  0.60370200  1
  Se  Se60  1  0.89351100  0.98148900  0.62500000  1
  Se  Se61  1  0.60648900  0.12500000  0.69629800  1
  Se  Se62  1  0.89351100  0.87500000  0.74629800  1
  Se  Se63  1  0.10648900  0.26851100  0.72500000  1
  Se  Se64  1  0.10648900  0.87500000  0.70370200  1
  Se  Se65  1  0.89351100  0.48148900  0.72500000  1
