# generated using pymatgen
data_Mg52Zn93
_symmetry_space_group_name_H-M   'P 1'
_cell_length_a   5.07402209
_cell_length_b   22.10207791
_cell_length_c   42.67993100
_cell_angle_alpha   98.00895109
_cell_angle_beta   93.24549340
_cell_angle_gamma   83.83945518
_symmetry_Int_Tables_number   1
_chemical_formula_structural   Mg52Zn93
_chemical_formula_sum   'Mg52 Zn93'
_cell_volume   4708.12433190
_cell_formula_units_Z   1
loop_
 _symmetry_equiv_pos_site_id
 _symmetry_equiv_pos_as_xyz
  1  'x, y, z'
loop_
 _atom_site_type_symbol
 _atom_site_label
 _atom_site_symmetry_multiplicity
 _atom_site_fract_x
 _atom_site_fract_y
 _atom_site_fract_z
 _atom_site_occupancy
  Mg  Mg0  1  0.58757900  0.02694000  0.23387100  1
  Mg  Mg1  1  0.45144400  0.26686900  0.20710500  1
  Mg  Mg2  1  0.02568500  0.29975100  0.37121700  1
  Mg  Mg3  1  0.86182900  0.64692800  0.39557800  1
  Mg  Mg4  1  0.96399400  0.29366500  0.24934200  1
  Mg  Mg5  1  0.67030600  0.87909900  0.24367500  1
  Mg  Mg6  1  0.03172900  0.20871700  0.30462000  1
  Mg  Mg7  1  0.80540100  0.68753200  0.33169500  1
  Mg  Mg8  1  0.57502300  0.11886500  0.29972700  1
  Mg  Mg9  1  0.90323600  0.44079500  0.27793100  1
  Mg  Mg10  1  0.64154500  0.03470900  0.35605600  1
  Mg  Mg11  1  0.29220700  0.61559500  0.22754600  1
  Mg  Mg12  1  0.30911400  0.72972700  0.37993200  1
  Mg  Mg13  1  0.47906700  0.38916600  0.37708300  1
  Mg  Mg14  1  0.18816300  0.94529400  0.35019000  1
  Mg  Mg15  1  0.83550100  0.52574300  0.22265200  1
  Mg  Mg16  1  0.27965100  0.70752000  0.29340200  1
  Mg  Mg17  1  0.19692400  0.85536100  0.28359700  1
  Mg  Mg18  1  0.41578600  0.46759100  0.32016800  1
  Mg  Mg19  1  0.35811600  0.60473300  0.34734000  1
  Mg  Mg20  1  0.38757900  0.62694000  0.43387100  1
  Mg  Mg21  1  0.25144400  0.86686900  0.40710500  1
  Mg  Mg22  1  0.82568500  0.89975100  0.57121700  1
  Mg  Mg23  1  0.66182900  0.24692800  0.59557800  1
  Mg  Mg24  1  0.76399400  0.89366500  0.44934200  1
  Mg  Mg25  1  0.47030600  0.47909900  0.44367500  1
  Mg  Mg26  1  0.83172900  0.80871700  0.50462000  1
  Mg  Mg27  1  0.60540100  0.28753200  0.53169500  1
  Mg  Mg28  1  0.37502300  0.71886500  0.49972700  1
  Mg  Mg29  1  0.70323600  0.04079500  0.47793100  1
  Mg  Mg30  1  0.44154500  0.63470900  0.55605600  1
  Mg  Mg31  1  0.09220700  0.21559500  0.42754600  1
  Mg  Mg32  1  0.10911400  0.32972700  0.57993200  1
  Mg  Mg33  1  0.27906700  0.98916600  0.57708300  1
  Mg  Mg34  1  0.98816300  0.54529400  0.55019000  1
  Mg  Mg35  1  0.63550100  0.12574300  0.42265200  1
  Mg  Mg36  1  0.07965100  0.30752000  0.49340200  1
  Mg  Mg37  1  0.99692400  0.45536100  0.48359700  1
  Mg  Mg38  1  0.21578600  0.06759100  0.52016800  1
  Mg  Mg39  1  0.15811600  0.20473300  0.54734000  1
  Mg  Mg40  1  0.18757900  0.22694000  0.63387100  1
  Mg  Mg41  1  0.05144400  0.46686900  0.60710500  1
  Mg  Mg42  1  0.56399400  0.49366500  0.64934200  1
  Mg  Mg43  1  0.27030600  0.07909900  0.64367500  1
  Mg  Mg44  1  0.63172900  0.40871700  0.70462000  1
  Mg  Mg45  1  0.17502300  0.31886500  0.69972700  1
  Mg  Mg46  1  0.50323600  0.64079500  0.67793100  1
  Mg  Mg47  1  0.89220700  0.81559500  0.62754600  1
  Mg  Mg48  1  0.43550100  0.72574300  0.62265200  1
  Mg  Mg49  1  0.87965100  0.90752000  0.69340200  1
  Mg  Mg50  1  0.79692400  0.05536100  0.68359700  1
  Mg  Mg51  1  0.01578600  0.66759100  0.72016800  1
  Zn  Zn52  1  0.49321000  0.25153800  0.27533700  1
  Zn  Zn53  1  0.78563600  0.79110000  0.39300700  1
  Zn  Zn54  1  0.11562200  0.07495400  0.32834800  1
  Zn  Zn55  1  0.58925000  0.57613600  0.28502800  1
  Zn  Zn56  1  0.14055500  0.39259800  0.21257100  1
  Zn  Zn57  1  0.77294800  0.16069300  0.24167000  1
  Zn  Zn58  1  0.83361500  0.16723000  0.36363600  1
  Zn  Zn59  1  0.37402000  0.48292200  0.25193500  1
  Zn  Zn60  1  0.69451200  0.89947300  0.31606200  1
  Zn  Zn61  1  0.22035500  0.34177900  0.31480000  1
  Zn  Zn62  1  0.88583900  0.98489400  0.29256600  1
  Zn  Zn63  1  0.12773500  0.95283700  0.23923500  1
  Zn  Zn64  1  0.52842800  0.25256700  0.33776800  1
  Zn  Zn65  1  0.95000300  0.43018400  0.34834800  1
  Zn  Zn66  1  0.88159400  0.54335900  0.33426500  1
  Zn  Zn67  1  0.17271800  0.83498700  0.21121100  1
  Zn  Zn68  1  0.17621000  0.52275400  0.38604600  1
  Zn  Zn69  1  0.64687500  0.39268100  0.21247200  1
  Zn  Zn70  1  0.09428200  0.57376700  0.28560200  1
  Zn  Zn71  1  0.13880200  0.08189300  0.38950400  1
  Zn  Zn72  1  0.49102000  0.81170600  0.34122700  1
  Zn  Zn73  1  0.72667500  0.34186200  0.31470200  1
  Zn  Zn74  1  0.33361500  0.16723000  0.36363600  1
  Zn  Zn75  1  0.07583500  0.07535700  0.26730400  1
  Zn  Zn76  1  0.39045900  0.98397600  0.29276200  1
  Zn  Zn77  1  0.66165500  0.52490200  0.38588100  1
  Zn  Zn78  1  0.79139500  0.65910300  0.25996900  1
  Zn  Zn79  1  0.00557500  0.80955800  0.34139200  1
  Zn  Zn80  1  0.71722700  0.90427600  0.37892500  1
  Zn  Zn81  1  0.47677100  0.75048400  0.23451000  1
  Zn  Zn82  1  0.27798000  0.15832400  0.24224500  1
  Zn  Zn83  1  0.43361500  0.36723000  0.26363600  1
  Zn  Zn84  1  0.98139100  0.74956600  0.23470600  1
  Zn  Zn85  1  0.73949500  0.78162300  0.28803800  1
  Zn  Zn86  1  0.75160800  0.65950600  0.19892500  1
  Zn  Zn87  1  0.29321000  0.85153800  0.47533700  1
  Zn  Zn88  1  0.58563600  0.39110000  0.59300700  1
  Zn  Zn89  1  0.91562200  0.67495400  0.52834800  1
  Zn  Zn90  1  0.38925000  0.17613600  0.48502800  1
  Zn  Zn91  1  0.94055500  0.99259800  0.41257100  1
  Zn  Zn92  1  0.57294800  0.76069300  0.44167000  1
  Zn  Zn93  1  0.63361500  0.76723000  0.56363600  1
  Zn  Zn94  1  0.17402000  0.08292200  0.45193500  1
  Zn  Zn95  1  0.49451200  0.49947300  0.51606200  1
  Zn  Zn96  1  0.02035500  0.94177900  0.51480000  1
  Zn  Zn97  1  0.68583900  0.58489400  0.49256600  1
  Zn  Zn98  1  0.92773500  0.55283700  0.43923500  1
  Zn  Zn99  1  0.32842800  0.85256700  0.53776800  1
  Zn  Zn100  1  0.75000300  0.03018400  0.54834800  1
  Zn  Zn101  1  0.68159400  0.14335900  0.53426500  1
  Zn  Zn102  1  0.97271800  0.43498700  0.41121100  1
  Zn  Zn103  1  0.97621000  0.12275400  0.58604600  1
  Zn  Zn104  1  0.44687500  0.99268100  0.41247200  1
  Zn  Zn105  1  0.89428200  0.17376700  0.48560200  1
  Zn  Zn106  1  0.93880200  0.68189300  0.58950400  1
  Zn  Zn107  1  0.29102000  0.41170600  0.54122700  1
  Zn  Zn108  1  0.52667500  0.94186200  0.51470200  1
  Zn  Zn109  1  0.13361500  0.76723000  0.56363600  1
  Zn  Zn110  1  0.87583500  0.67535700  0.46730400  1
  Zn  Zn111  1  0.19045900  0.58397600  0.49276200  1
  Zn  Zn112  1  0.46165500  0.12490200  0.58588100  1
  Zn  Zn113  1  0.59139500  0.25910300  0.45996900  1
  Zn  Zn114  1  0.80557500  0.40955800  0.54139200  1
  Zn  Zn115  1  0.51722700  0.50427600  0.57892500  1
  Zn  Zn116  1  0.27677100  0.35048400  0.43451000  1
  Zn  Zn117  1  0.07798000  0.75832400  0.44224500  1
  Zn  Zn118  1  0.23361500  0.96723000  0.46363600  1
  Zn  Zn119  1  0.78139100  0.34956600  0.43470600  1
  Zn  Zn120  1  0.53949500  0.38162300  0.48803800  1
  Zn  Zn121  1  0.55160800  0.25950600  0.39892500  1
  Zn  Zn122  1  0.09321000  0.45153800  0.67533700  1
  Zn  Zn123  1  0.71562200  0.27495400  0.72834800  1
  Zn  Zn124  1  0.18925000  0.77613600  0.68502800  1
  Zn  Zn125  1  0.74055500  0.59259800  0.61257100  1
  Zn  Zn126  1  0.37294800  0.36069300  0.64167000  1
  Zn  Zn127  1  0.97402000  0.68292200  0.65193500  1
  Zn  Zn128  1  0.29451200  0.09947300  0.71606200  1
  Zn  Zn129  1  0.82035500  0.54177900  0.71480000  1
  Zn  Zn130  1  0.48583900  0.18489400  0.69256600  1
  Zn  Zn131  1  0.72773500  0.15283700  0.63923500  1
  Zn  Zn132  1  0.77271800  0.03498700  0.61121100  1
  Zn  Zn133  1  0.24687500  0.59268100  0.61247200  1
  Zn  Zn134  1  0.69428200  0.77376700  0.68560200  1
  Zn  Zn135  1  0.32667500  0.54186200  0.71470200  1
  Zn  Zn136  1  0.67583500  0.27535700  0.66730400  1
  Zn  Zn137  1  0.99045900  0.18397600  0.69276200  1
  Zn  Zn138  1  0.39139500  0.85910300  0.65996900  1
  Zn  Zn139  1  0.07677100  0.95048400  0.63451000  1
  Zn  Zn140  1  0.87798000  0.35832400  0.64224500  1
  Zn  Zn141  1  0.03361500  0.56723000  0.66363600  1
  Zn  Zn142  1  0.58139100  0.94956600  0.63470600  1
  Zn  Zn143  1  0.33949500  0.98162300  0.68803800  1
  Zn  Zn144  1  0.35160800  0.85950600  0.59892500  1
