# generated using pymatgen
data_Mg3P11
_symmetry_space_group_name_H-M   'P 1'
_cell_length_a   5.19237519
_cell_length_b   9.16199237
_cell_length_c   42.38861300
_cell_angle_alpha   92.43695802
_cell_angle_beta   87.58880221
_cell_angle_gamma   97.12465569
_symmetry_Int_Tables_number   1
_chemical_formula_structural   Mg3P11
_chemical_formula_sum   'Mg12 P44'
_cell_volume   1997.77481472
_cell_formula_units_Z   4
loop_
 _symmetry_equiv_pos_site_id
 _symmetry_equiv_pos_as_xyz
  1  'x, y, z'
loop_
 _atom_site_type_symbol
 _atom_site_label
 _atom_site_symmetry_multiplicity
 _atom_site_fract_x
 _atom_site_fract_y
 _atom_site_fract_z
 _atom_site_occupancy
  Mg  Mg0  1  0.93730700  0.81192200  0.27000000  1
  Mg  Mg1  1  0.93730700  0.31192200  0.27000000  1
  Mg  Mg2  1  0.83730700  0.51192200  0.37000000  1
  Mg  Mg3  1  0.83730700  0.01192200  0.37000000  1
  Mg  Mg4  1  0.73730700  0.21192200  0.47000000  1
  Mg  Mg5  1  0.73730700  0.71192200  0.47000000  1
  Mg  Mg6  1  0.63730700  0.91192200  0.57000000  1
  Mg  Mg7  1  0.63730700  0.41192200  0.57000000  1
  Mg  Mg8  1  0.53730700  0.61192200  0.67000000  1
  Mg  Mg9  1  0.53730700  0.11192200  0.67000000  1
  Mg  Mg10  1  0.43730700  0.31192200  0.77000000  1
  Mg  Mg11  1  0.43730700  0.81192200  0.77000000  1
  P  P12  1  0.19411600  0.57716600  0.26614500  1
  P  P13  1  0.68049800  0.04667700  0.27385500  1
  P  P14  1  0.36340100  0.99907700  0.24079500  1
  P  P15  1  0.51121300  0.62476600  0.29920500  1
  P  P16  1  0.63894400  0.42201600  0.31540900  1
  P  P17  1  0.09411600  0.27716600  0.36614500  1
  P  P18  1  0.13567000  0.90182700  0.32459100  1
  P  P19  1  0.58049800  0.74667700  0.37385500  1
  P  P20  1  0.48953200  0.05972200  0.32088700  1
  P  P21  1  0.26340100  0.69907700  0.34079500  1
  P  P22  1  0.28508200  0.26412100  0.31911300  1
  P  P23  1  0.41121300  0.32476600  0.39920500  1
  P  P24  1  0.53894400  0.12201600  0.41540900  1
  P  P25  1  0.99411600  0.97716600  0.46614500  1
  P  P26  1  0.03567000  0.60182700  0.42459100  1
  P  P27  1  0.48049800  0.44667700  0.47385500  1
  P  P28  1  0.38953200  0.75972200  0.42088700  1
  P  P29  1  0.16340100  0.39907700  0.44079500  1
  P  P30  1  0.18508200  0.96412100  0.41911300  1
  P  P31  1  0.31121300  0.02476600  0.49920500  1
  P  P32  1  0.43894400  0.82201600  0.51540900  1
  P  P33  1  0.89411600  0.67716600  0.56614500  1
  P  P34  1  0.93567000  0.30182700  0.52459100  1
  P  P35  1  0.38049800  0.14667700  0.57385500  1
  P  P36  1  0.28953200  0.45972200  0.52088700  1
  P  P37  1  0.06340100  0.09907700  0.54079500  1
  P  P38  1  0.08508200  0.66412100  0.51911300  1
  P  P39  1  0.21121300  0.72476600  0.59920500  1
  P  P40  1  0.33894400  0.52201600  0.61540900  1
  P  P41  1  0.79411600  0.37716600  0.66614500  1
  P  P42  1  0.83567000  0.00182700  0.62459100  1
  P  P43  1  0.28049800  0.84667700  0.67385500  1
  P  P44  1  0.18953200  0.15972200  0.62088700  1
  P  P45  1  0.96340100  0.79907700  0.64079500  1
  P  P46  1  0.98508200  0.36412100  0.61911300  1
  P  P47  1  0.11121300  0.42476600  0.69920500  1
  P  P48  1  0.23894400  0.22201600  0.71540900  1
  P  P49  1  0.69411600  0.07716600  0.76614500  1
  P  P50  1  0.73567000  0.70182700  0.72459100  1
  P  P51  1  0.18049800  0.54667700  0.77385500  1
  P  P52  1  0.08953200  0.85972200  0.72088700  1
  P  P53  1  0.86340100  0.49907700  0.74079500  1
  P  P54  1  0.88508200  0.06412100  0.71911300  1
  P  P55  1  0.01121300  0.12476600  0.79920500  1
