# generated using pymatgen
data_Mg9Pd25
_symmetry_space_group_name_H-M   'P 1'
_cell_length_a   5.64587871
_cell_length_b   8.37818097
_cell_length_c   42.43808700
_cell_angle_alpha   88.71573016
_cell_angle_beta   86.18592787
_cell_angle_gamma   70.30948429
_symmetry_Int_Tables_number   1
_chemical_formula_structural   Mg9Pd25
_chemical_formula_sum   'Mg18 Pd50'
_cell_volume   1885.84759169
_cell_formula_units_Z   2
loop_
 _symmetry_equiv_pos_site_id
 _symmetry_equiv_pos_as_xyz
  1  'x, y, z'
loop_
 _atom_site_type_symbol
 _atom_site_label
 _atom_site_symmetry_multiplicity
 _atom_site_fract_x
 _atom_site_fract_y
 _atom_site_fract_z
 _atom_site_occupancy
  Mg  Mg0  1  0.22629100  0.24741800  0.25000000  1
  Mg  Mg1  1  0.47370900  0.75258200  0.25000000  1
  Mg  Mg2  1  0.69295800  0.24741800  0.31666700  1
  Mg  Mg3  1  0.94037600  0.75258200  0.31666700  1
  Mg  Mg4  1  0.15962400  0.24741800  0.38333300  1
  Mg  Mg5  1  0.40704200  0.75258200  0.38333300  1
  Mg  Mg6  1  0.62629100  0.24741800  0.45000000  1
  Mg  Mg7  1  0.87370900  0.75258200  0.45000000  1
  Mg  Mg8  1  0.09295800  0.24741800  0.51666700  1
  Mg  Mg9  1  0.34037600  0.75258200  0.51666700  1
  Mg  Mg10  1  0.55962400  0.24741800  0.58333300  1
  Mg  Mg11  1  0.80704200  0.75258200  0.58333300  1
  Mg  Mg12  1  0.02629100  0.24741800  0.65000000  1
  Mg  Mg13  1  0.27370900  0.75258200  0.65000000  1
  Mg  Mg14  1  0.49295800  0.24741800  0.71666700  1
  Mg  Mg15  1  0.74037600  0.75258200  0.71666700  1
  Mg  Mg16  1  0.95962400  0.24741800  0.78333300  1
  Mg  Mg17  1  0.20704200  0.75258200  0.78333300  1
  Pd  Pd18  1  0.97476300  0.75047400  0.25000000  1
  Pd  Pd19  1  0.72523700  0.24952600  0.25000000  1
  Pd  Pd20  1  0.08333300  0.00000000  0.28333300  1
  Pd  Pd21  1  0.58333300  0.00000000  0.28333300  1
  Pd  Pd22  1  0.83333300  0.50000000  0.28333300  1
  Pd  Pd23  1  0.33333300  0.50000000  0.28333300  1
  Pd  Pd24  1  0.44143000  0.75047400  0.31666700  1
  Pd  Pd25  1  0.19190400  0.24952600  0.31666700  1
  Pd  Pd26  1  0.55000000  0.00000000  0.35000000  1
  Pd  Pd27  1  0.05000000  0.00000000  0.35000000  1
  Pd  Pd28  1  0.30000000  0.50000000  0.35000000  1
  Pd  Pd29  1  0.80000000  0.50000000  0.35000000  1
  Pd  Pd30  1  0.90809600  0.75047400  0.38333300  1
  Pd  Pd31  1  0.65857000  0.24952600  0.38333300  1
  Pd  Pd32  1  0.01666700  0.00000000  0.41666700  1
  Pd  Pd33  1  0.51666700  0.00000000  0.41666700  1
  Pd  Pd34  1  0.76666700  0.50000000  0.41666700  1
  Pd  Pd35  1  0.26666700  0.50000000  0.41666700  1
  Pd  Pd36  1  0.37476300  0.75047400  0.45000000  1
  Pd  Pd37  1  0.12523700  0.24952600  0.45000000  1
  Pd  Pd38  1  0.48333300  0.00000000  0.48333300  1
  Pd  Pd39  1  0.98333300  0.00000000  0.48333300  1
  Pd  Pd40  1  0.23333300  0.50000000  0.48333300  1
  Pd  Pd41  1  0.73333300  0.50000000  0.48333300  1
  Pd  Pd42  1  0.84143000  0.75047400  0.51666700  1
  Pd  Pd43  1  0.59190400  0.24952600  0.51666700  1
  Pd  Pd44  1  0.95000000  0.00000000  0.55000000  1
  Pd  Pd45  1  0.45000000  0.00000000  0.55000000  1
  Pd  Pd46  1  0.70000000  0.50000000  0.55000000  1
  Pd  Pd47  1  0.20000000  0.50000000  0.55000000  1
  Pd  Pd48  1  0.30809600  0.75047400  0.58333300  1
  Pd  Pd49  1  0.05857000  0.24952600  0.58333300  1
  Pd  Pd50  1  0.41666700  0.00000000  0.61666700  1
  Pd  Pd51  1  0.91666700  0.00000000  0.61666700  1
  Pd  Pd52  1  0.16666700  0.50000000  0.61666700  1
  Pd  Pd53  1  0.66666700  0.50000000  0.61666700  1
  Pd  Pd54  1  0.77476300  0.75047400  0.65000000  1
  Pd  Pd55  1  0.52523700  0.24952600  0.65000000  1
  Pd  Pd56  1  0.88333300  0.00000000  0.68333300  1
  Pd  Pd57  1  0.38333300  0.00000000  0.68333300  1
  Pd  Pd58  1  0.63333300  0.50000000  0.68333300  1
  Pd  Pd59  1  0.13333300  0.50000000  0.68333300  1
  Pd  Pd60  1  0.24143000  0.75047400  0.71666700  1
  Pd  Pd61  1  0.99190400  0.24952600  0.71666700  1
  Pd  Pd62  1  0.35000000  0.00000000  0.75000000  1
  Pd  Pd63  1  0.85000000  0.00000000  0.75000000  1
  Pd  Pd64  1  0.10000000  0.50000000  0.75000000  1
  Pd  Pd65  1  0.60000000  0.50000000  0.75000000  1
  Pd  Pd66  1  0.70809600  0.75047400  0.78333300  1
  Pd  Pd67  1  0.45857000  0.24952600  0.78333300  1
