# generated using pymatgen
data_Mg23Zn41
_symmetry_space_group_name_H-M   'P 1'
_cell_length_a   5.07402209
_cell_length_b   22.10207791
_cell_length_c   42.67993100
_cell_angle_alpha   98.00895109
_cell_angle_beta   93.24549340
_cell_angle_gamma   83.83945518
_symmetry_Int_Tables_number   1
_chemical_formula_structural   Mg23Zn41
_chemical_formula_sum   'Mg46 Zn82'
_cell_volume   4708.12433190
_cell_formula_units_Z   2
loop_
 _symmetry_equiv_pos_site_id
 _symmetry_equiv_pos_as_xyz
  1  'x, y, z'
loop_
 _atom_site_type_symbol
 _atom_site_label
 _atom_site_symmetry_multiplicity
 _atom_site_fract_x
 _atom_site_fract_y
 _atom_site_fract_z
 _atom_site_occupancy
  Mg  Mg0  1  0.02272600  0.29383400  0.37485300  1
  Mg  Mg1  1  0.63858700  0.02879100  0.35969200  1
  Mg  Mg2  1  0.30615500  0.72380900  0.38356900  1
  Mg  Mg3  1  0.47610900  0.38324900  0.38071900  1
  Mg  Mg4  1  0.18520400  0.93937700  0.35382600  1
  Mg  Mg5  1  0.35515800  0.59881600  0.35097700  1
  Mg  Mg6  1  0.38462000  0.62102300  0.43750800  1
  Mg  Mg7  1  0.24848500  0.86095100  0.41074100  1
  Mg  Mg8  1  0.82272600  0.89383400  0.57485300  1
  Mg  Mg9  1  0.85887000  0.64101100  0.39921500  1
  Mg  Mg10  1  0.76103500  0.88774700  0.45297800  1
  Mg  Mg11  1  0.46734700  0.47318100  0.44731200  1
  Mg  Mg12  1  0.82877000  0.80280000  0.50825700  1
  Mg  Mg13  1  0.60244200  0.28161400  0.53533100  1
  Mg  Mg14  1  0.37206400  0.71294800  0.50336300  1
  Mg  Mg15  1  0.70027800  0.03487800  0.48156700  1
  Mg  Mg16  1  0.43858700  0.62879100  0.55969200  1
  Mg  Mg17  1  0.08924900  0.20967800  0.43118200  1
  Mg  Mg18  1  0.10615500  0.32380900  0.58356900  1
  Mg  Mg19  1  0.27610900  0.98324900  0.58071900  1
  Mg  Mg20  1  0.98520400  0.53937700  0.55382600  1
  Mg  Mg21  1  0.63254200  0.11982500  0.42628900  1
  Mg  Mg22  1  0.07669300  0.30160300  0.49703800  1
  Mg  Mg23  1  0.99396600  0.44944400  0.48723400  1
  Mg  Mg24  1  0.21282700  0.06167400  0.52380500  1
  Mg  Mg25  1  0.15515800  0.19881600  0.55097700  1
  Mg  Mg26  1  0.18462000  0.22102300  0.63750800  1
  Mg  Mg27  1  0.04848500  0.46095100  0.61074100  1
  Mg  Mg28  1  0.62272600  0.49383400  0.77485300  1
  Mg  Mg29  1  0.65887000  0.24101100  0.59921500  1
  Mg  Mg30  1  0.56103500  0.48774700  0.65297800  1
  Mg  Mg31  1  0.26734700  0.07318100  0.64731200  1
  Mg  Mg32  1  0.62877000  0.40280000  0.70825700  1
  Mg  Mg33  1  0.40244200  0.88161400  0.73533100  1
  Mg  Mg34  1  0.17206400  0.31294800  0.70336300  1
  Mg  Mg35  1  0.50027800  0.63487800  0.68156700  1
  Mg  Mg36  1  0.23858700  0.22879100  0.75969200  1
  Mg  Mg37  1  0.88924900  0.80967800  0.63118200  1
  Mg  Mg38  1  0.90615500  0.92380900  0.78356900  1
  Mg  Mg39  1  0.07610900  0.58324900  0.78071900  1
  Mg  Mg40  1  0.78520400  0.13937700  0.75382600  1
  Mg  Mg41  1  0.43254200  0.71982500  0.62628900  1
  Mg  Mg42  1  0.87669300  0.90160300  0.69703800  1
  Mg  Mg43  1  0.79396600  0.04944400  0.68723400  1
  Mg  Mg44  1  0.01282700  0.66167400  0.72380500  1
  Mg  Mg45  1  0.95515800  0.79881600  0.75097700  1
  Zn  Zn46  1  0.78267700  0.78518300  0.39664400  1
  Zn  Zn47  1  0.83065600  0.16131300  0.36727300  1
  Zn  Zn48  1  0.52546900  0.24665000  0.34140500  1
  Zn  Zn49  1  0.94704400  0.42426700  0.35198400  1
  Zn  Zn50  1  0.87863600  0.53744200  0.33790200  1
  Zn  Zn51  1  0.17325200  0.51683700  0.38968200  1
  Zn  Zn52  1  0.13584300  0.07597500  0.39314100  1
  Zn  Zn53  1  0.48806100  0.80578800  0.34486300  1
  Zn  Zn54  1  0.33065600  0.16131300  0.36727300  1
  Zn  Zn55  1  0.65869600  0.51898500  0.38951700  1
  Zn  Zn56  1  0.00261700  0.80364100  0.34502800  1
  Zn  Zn57  1  0.71426900  0.89835900  0.38256100  1
  Zn  Zn58  1  0.29025100  0.84562100  0.47897400  1
  Zn  Zn59  1  0.58267700  0.38518300  0.59664400  1
  Zn  Zn60  1  0.91266300  0.66903700  0.53198500  1
  Zn  Zn61  1  0.38629100  0.17021900  0.48866400  1
  Zn  Zn62  1  0.93759700  0.98668000  0.41620700  1
  Zn  Zn63  1  0.56998900  0.75477600  0.44530700  1
  Zn  Zn64  1  0.63065600  0.76131300  0.56727300  1
  Zn  Zn65  1  0.17106100  0.07700500  0.45557200  1
  Zn  Zn66  1  0.49155400  0.49355600  0.51969800  1
  Zn  Zn67  1  0.01739600  0.93586200  0.51843700  1
  Zn  Zn68  1  0.68288100  0.57897600  0.49620300  1
  Zn  Zn69  1  0.92477700  0.54692000  0.44287100  1
  Zn  Zn70  1  0.32546900  0.84665000  0.54140500  1
  Zn  Zn71  1  0.74704400  0.02426700  0.55198400  1
  Zn  Zn72  1  0.67863600  0.13744200  0.53790200  1
  Zn  Zn73  1  0.96975900  0.42907000  0.41484700  1
  Zn  Zn74  1  0.97325200  0.11683700  0.58968200  1
  Zn  Zn75  1  0.44391600  0.98676300  0.41610900  1
  Zn  Zn76  1  0.89132300  0.16785000  0.48923900  1
  Zn  Zn77  1  0.93584300  0.67597500  0.59314100  1
  Zn  Zn78  1  0.28806100  0.40578800  0.54486300  1
  Zn  Zn79  1  0.52371600  0.93594500  0.51833900  1
  Zn  Zn80  1  0.13065600  0.76131300  0.56727300  1
  Zn  Zn81  1  0.87287600  0.66944000  0.47094000  1
  Zn  Zn82  1  0.18750000  0.57805900  0.49639900  1
  Zn  Zn83  1  0.45869600  0.11898500  0.58951700  1
  Zn  Zn84  1  0.58843700  0.25318500  0.46360500  1
  Zn  Zn85  1  0.80261700  0.40364100  0.54502800  1
  Zn  Zn86  1  0.51426900  0.49835900  0.58256100  1
  Zn  Zn87  1  0.27381300  0.34456700  0.43814700  1
  Zn  Zn88  1  0.07502100  0.75240700  0.44588100  1
  Zn  Zn89  1  0.23065600  0.96131300  0.46727300  1
  Zn  Zn90  1  0.77843200  0.34364900  0.43834300  1
  Zn  Zn91  1  0.53653600  0.37570600  0.49167400  1
  Zn  Zn92  1  0.54865000  0.25358900  0.40256100  1
  Zn  Zn93  1  0.09025100  0.44562100  0.67897400  1
  Zn  Zn94  1  0.38267700  0.98518300  0.79664400  1
  Zn  Zn95  1  0.71266300  0.26903700  0.73198500  1
  Zn  Zn96  1  0.18629100  0.77021900  0.68866400  1
  Zn  Zn97  1  0.73759700  0.58668000  0.61620700  1
  Zn  Zn98  1  0.36998900  0.35477600  0.64530700  1
  Zn  Zn99  1  0.43065600  0.36131300  0.76727300  1
  Zn  Zn100  1  0.97106100  0.67700500  0.65557200  1
  Zn  Zn101  1  0.29155400  0.09355600  0.71969800  1
  Zn  Zn102  1  0.81739600  0.53586200  0.71843700  1
  Zn  Zn103  1  0.48288100  0.17897600  0.69620300  1
  Zn  Zn104  1  0.72477700  0.14692000  0.64287100  1
  Zn  Zn105  1  0.12546900  0.44665000  0.74140500  1
  Zn  Zn106  1  0.54704400  0.62426700  0.75198400  1
  Zn  Zn107  1  0.47863600  0.73744200  0.73790200  1
  Zn  Zn108  1  0.76975900  0.02907000  0.61484700  1
  Zn  Zn109  1  0.77325200  0.71683700  0.78968200  1
  Zn  Zn110  1  0.24391600  0.58676300  0.61610900  1
  Zn  Zn111  1  0.69132300  0.76785000  0.68923900  1
  Zn  Zn112  1  0.73584300  0.27597500  0.79314100  1
  Zn  Zn113  1  0.08806100  0.00578800  0.74486300  1
  Zn  Zn114  1  0.32371600  0.53594500  0.71833900  1
  Zn  Zn115  1  0.93065600  0.36131300  0.76727300  1
  Zn  Zn116  1  0.67287600  0.26944000  0.67094000  1
  Zn  Zn117  1  0.98750000  0.17805900  0.69639900  1
  Zn  Zn118  1  0.25869600  0.71898500  0.78951700  1
  Zn  Zn119  1  0.38843700  0.85318500  0.66360500  1
  Zn  Zn120  1  0.60261700  0.00364100  0.74502800  1
  Zn  Zn121  1  0.31426900  0.09835900  0.78256100  1
  Zn  Zn122  1  0.07381300  0.94456700  0.63814700  1
  Zn  Zn123  1  0.87502100  0.35240700  0.64588100  1
  Zn  Zn124  1  0.03065600  0.56131300  0.66727300  1
  Zn  Zn125  1  0.57843200  0.94364900  0.63834300  1
  Zn  Zn126  1  0.33653600  0.97570600  0.69167400  1
  Zn  Zn127  1  0.34865000  0.85358900  0.60256100  1
