# generated using pymatgen
data_Mg10Sc19
_symmetry_space_group_name_H-M   'P 1'
_cell_length_a   6.15802808
_cell_length_b   8.41162235
_cell_length_c   44.44502100
_cell_angle_alpha   88.64208176
_cell_angle_beta   86.82203302
_cell_angle_gamma   83.76368766
_symmetry_Int_Tables_number   1
_chemical_formula_structural   Mg10Sc19
_chemical_formula_sum   'Mg20 Sc38'
_cell_volume   2284.70234821
_cell_formula_units_Z   2
loop_
 _symmetry_equiv_pos_site_id
 _symmetry_equiv_pos_as_xyz
  1  'x, y, z'
loop_
 _atom_site_type_symbol
 _atom_site_label
 _atom_site_symmetry_multiplicity
 _atom_site_fract_x
 _atom_site_fract_y
 _atom_site_fract_z
 _atom_site_occupancy
  Mg  Mg0  1  0.45150100  0.10305500  0.77214200  1
  Mg  Mg1  1  0.75624900  0.31361200  0.81119200  1
  Mg  Mg2  1  0.76400100  0.16555500  0.70964200  1
  Mg  Mg3  1  0.06874900  0.37611200  0.74869200  1
  Mg  Mg4  1  0.07650100  0.22805500  0.64714200  1
  Mg  Mg5  1  0.38124900  0.43861200  0.68619200  1
  Mg  Mg6  1  0.38900100  0.29055500  0.58464200  1
  Mg  Mg7  1  0.69374900  0.50111200  0.62369200  1
  Mg  Mg8  1  0.70150100  0.35305500  0.52214200  1
  Mg  Mg9  1  0.00624900  0.56361200  0.56119200  1
  Mg  Mg10  1  0.01400100  0.41555500  0.45964200  1
  Mg  Mg11  1  0.31874900  0.62611200  0.49869200  1
  Mg  Mg12  1  0.32650100  0.47805500  0.39714200  1
  Mg  Mg13  1  0.63124900  0.68861200  0.43619200  1
  Mg  Mg14  1  0.63900100  0.54055500  0.33464200  1
  Mg  Mg15  1  0.94374900  0.75111200  0.37369200  1
  Mg  Mg16  1  0.95150100  0.60305500  0.27214200  1
  Mg  Mg17  1  0.25624900  0.81361200  0.31119200  1
  Mg  Mg18  1  0.26400100  0.66555500  0.20964200  1
  Mg  Mg19  1  0.56874900  0.87611200  0.24869200  1
  Sc  Sc20  1  0.55625100  0.45360600  0.75119200  1
  Sc  Sc21  1  0.34661800  0.75332700  0.79311800  1
  Sc  Sc22  1  0.96400000  0.02556100  0.76964200  1
  Sc  Sc23  1  0.86113200  0.66334000  0.79021500  1
  Sc  Sc24  1  0.86875100  0.51610600  0.68869200  1
  Sc  Sc25  1  0.65911800  0.81582700  0.73061800  1
  Sc  Sc26  1  0.27650000  0.08806100  0.70714200  1
  Sc  Sc27  1  0.17363200  0.72584000  0.72771500  1
  Sc  Sc28  1  0.18125100  0.57860600  0.62619200  1
  Sc  Sc29  1  0.97161800  0.87832700  0.66811800  1
  Sc  Sc30  1  0.58900000  0.15056100  0.64464200  1
  Sc  Sc31  1  0.48613200  0.78834000  0.66521500  1
  Sc  Sc32  1  0.49375100  0.64110600  0.56369200  1
  Sc  Sc33  1  0.28411800  0.94082700  0.60561800  1
  Sc  Sc34  1  0.90150000  0.21306100  0.58214200  1
  Sc  Sc35  1  0.79863200  0.85084000  0.60271500  1
  Sc  Sc36  1  0.80625100  0.70360600  0.50119200  1
  Sc  Sc37  1  0.59661800  0.00332700  0.54311800  1
  Sc  Sc38  1  0.21400000  0.27556100  0.51964200  1
  Sc  Sc39  1  0.11113200  0.91334000  0.54021500  1
  Sc  Sc40  1  0.11875100  0.76610600  0.43869200  1
  Sc  Sc41  1  0.90911800  0.06582700  0.48061800  1
  Sc  Sc42  1  0.52650000  0.33806100  0.45714200  1
  Sc  Sc43  1  0.42363200  0.97584000  0.47771500  1
  Sc  Sc44  1  0.43125100  0.82860600  0.37619200  1
  Sc  Sc45  1  0.22161800  0.12832700  0.41811800  1
  Sc  Sc46  1  0.83900000  0.40056100  0.39464200  1
  Sc  Sc47  1  0.73613200  0.03834000  0.41521500  1
  Sc  Sc48  1  0.74375100  0.89110600  0.31369200  1
  Sc  Sc49  1  0.53411800  0.19082700  0.35561800  1
  Sc  Sc50  1  0.15150000  0.46306100  0.33214200  1
  Sc  Sc51  1  0.04863200  0.10084000  0.35271500  1
  Sc  Sc52  1  0.05625100  0.95360600  0.25119200  1
  Sc  Sc53  1  0.84661800  0.25332700  0.29311800  1
  Sc  Sc54  1  0.46400000  0.52556100  0.26964200  1
  Sc  Sc55  1  0.36113200  0.16334000  0.29021500  1
  Sc  Sc56  1  0.15911800  0.31582700  0.23061800  1
  Sc  Sc57  1  0.67363200  0.22584000  0.22771500  1
