# generated using pymatgen
data_Mg58Zn103
_symmetry_space_group_name_H-M   'P 1'
_cell_length_a   5.07402237
_cell_length_b   17.20699092
_cell_length_c   54.58155700
_cell_angle_alpha   87.89733091
_cell_angle_beta   92.22235669
_cell_angle_gamma   98.42726965
_symmetry_Int_Tables_number   1
_chemical_formula_structural   Mg58Zn103
_chemical_formula_sum   'Mg58 Zn103'
_cell_volume   4708.12472958
_cell_formula_units_Z   1
loop_
 _symmetry_equiv_pos_site_id
 _symmetry_equiv_pos_as_xyz
  1  'x, y, z'
loop_
 _atom_site_type_symbol
 _atom_site_label
 _atom_site_symmetry_multiplicity
 _atom_site_fract_x
 _atom_site_fract_y
 _atom_site_fract_z
 _atom_site_occupancy
  Mg  Mg0  1  0.60457200  0.13943200  0.22289000  1
  Mg  Mg1  1  0.34299600  0.52317800  0.32156500  1
  Mg  Mg2  1  0.06167900  0.92362500  0.34123500  1
  Mg  Mg3  1  0.05618300  0.05152700  0.20723600  1
  Mg  Mg4  1  0.90005300  0.62990600  0.31929400  1
  Mg  Mg5  1  0.63600600  0.13339400  0.28398800  1
  Mg  Mg6  1  0.97803300  0.74558600  0.36432900  1
  Mg  Mg7  1  0.76489000  0.30632700  0.37821800  1
  Mg  Mg8  1  0.48147100  0.71587100  0.39929100  1
  Mg  Mg9  1  0.92102000  0.72794700  0.26616000  1
  Mg  Mg10  1  0.75939400  0.43422900  0.24422000  1
  Mg  Mg11  1  0.13960300  0.04198300  0.38616300  1
  Mg  Mg12  1  0.32407100  0.43053600  0.37098800  1
  Mg  Mg13  1  0.55552000  0.95558600  0.30664200  1
  Mg  Mg14  1  0.26555300  0.40226800  0.27881200  1
  Mg  Mg15  1  0.84304000  0.61226800  0.22112500  1
  Mg  Mg16  1  0.21650100  0.21842100  0.36256400  1
  Mg  Mg17  1  0.18506700  0.22445900  0.30146700  1
  Mg  Mg18  1  0.47807800  0.83467600  0.26388900  1
  Mg  Mg19  1  0.49700300  0.92731700  0.21446700  1
  Mg  Mg20  1  0.40457200  0.53943200  0.42289000  1
  Mg  Mg21  1  0.14299600  0.92317800  0.52156500  1
  Mg  Mg22  1  0.86167900  0.32362500  0.54123500  1
  Mg  Mg23  1  0.85618300  0.45152700  0.40723600  1
  Mg  Mg24  1  0.70005300  0.02990600  0.51929400  1
  Mg  Mg25  1  0.43600600  0.53339400  0.48398800  1
  Mg  Mg26  1  0.77803300  0.14558600  0.56432900  1
  Mg  Mg27  1  0.56489000  0.70632700  0.57821800  1
  Mg  Mg28  1  0.28147100  0.11587100  0.59929100  1
  Mg  Mg29  1  0.72102000  0.12794700  0.46616000  1
  Mg  Mg30  1  0.55939400  0.83422900  0.44422000  1
  Mg  Mg31  1  0.93960300  0.44198300  0.58616300  1
  Mg  Mg32  1  0.12407100  0.83053600  0.57098800  1
  Mg  Mg33  1  0.35552000  0.35558600  0.50664200  1
  Mg  Mg34  1  0.06555300  0.80226800  0.47881200  1
  Mg  Mg35  1  0.64304000  0.01226800  0.42112500  1
  Mg  Mg36  1  0.01650100  0.61842100  0.56256400  1
  Mg  Mg37  1  0.98506700  0.62445900  0.50146700  1
  Mg  Mg38  1  0.27807800  0.23467600  0.46388900  1
  Mg  Mg39  1  0.29700300  0.32731700  0.41446700  1
  Mg  Mg40  1  0.20457200  0.93943200  0.62289000  1
  Mg  Mg41  1  0.94299600  0.32317800  0.72156500  1
  Mg  Mg42  1  0.66167900  0.72362500  0.74123500  1
  Mg  Mg43  1  0.65618300  0.85152700  0.60723600  1
  Mg  Mg44  1  0.50005300  0.42990600  0.71929400  1
  Mg  Mg45  1  0.23600600  0.93339400  0.68398800  1
  Mg  Mg46  1  0.57803300  0.54558600  0.76432900  1
  Mg  Mg47  1  0.36489000  0.10632700  0.77821800  1
  Mg  Mg48  1  0.52102000  0.52794700  0.66616000  1
  Mg  Mg49  1  0.35939400  0.23422900  0.64422000  1
  Mg  Mg50  1  0.92407100  0.23053600  0.77098800  1
  Mg  Mg51  1  0.15552000  0.75558600  0.70664200  1
  Mg  Mg52  1  0.86555300  0.20226800  0.67881200  1
  Mg  Mg53  1  0.44304000  0.41226800  0.62112500  1
  Mg  Mg54  1  0.81650100  0.01842100  0.76256400  1
  Mg  Mg55  1  0.78506700  0.02445900  0.70146700  1
  Mg  Mg56  1  0.07807800  0.63467600  0.66388900  1
  Mg  Mg57  1  0.09700300  0.72731700  0.61446700  1
  Zn  Zn58  1  0.43321600  0.68387100  0.34134400  1
  Zn  Zn59  1  0.83560200  0.47419100  0.34905300  1
  Zn  Zn60  1  0.22740200  0.37578000  0.22258000  1
  Zn  Zn61  1  0.66684700  0.77204800  0.21344300  1
  Zn  Zn62  1  0.08677100  0.56144200  0.27236700  1
  Zn  Zn63  1  0.64968200  0.58490100  0.37094900  1
  Zn  Zn64  1  0.81053700  0.87892700  0.39272700  1
  Zn  Zn65  1  0.38785700  0.67398300  0.24411000  1
  Zn  Zn66  1  0.72627100  0.31119600  0.29031500  1
  Zn  Zn67  1  0.22802700  0.79663000  0.31314000  1
  Zn  Zn68  1  0.93297100  0.27189200  0.25144800  1
  Zn  Zn69  1  0.11937900  0.13748400  0.25360400  1
  Zn  Zn70  1  0.51879000  0.83391100  0.35341900  1
  Zn  Zn71  1  0.01987500  0.89482600  0.28448800  1
  Zn  Zn72  1  0.98547100  0.88366200  0.23640100  1
  Zn  Zn73  1  0.09480200  0.04665700  0.29514000  1
  Zn  Zn74  1  0.31326900  0.00381400  0.25499900  1
  Zn  Zn75  1  0.59304600  0.56122400  0.27231400  1
  Zn  Zn76  1  0.17139100  0.77295200  0.21450600  1
  Zn  Zn77  1  0.30228300  0.52394300  0.23203600  1
  Zn  Zn78  1  0.50780400  0.35404000  0.33045500  1
  Zn  Zn79  1  0.73430200  0.79641100  0.31308700  1
  Zn  Zn80  1  0.31053700  0.87892700  0.39272700  1
  Zn  Zn81  1  0.13894100  0.22935400  0.21021000  1
  Zn  Zn82  1  0.43737900  0.27217800  0.25185400  1
  Zn  Zn83  1  0.79944100  0.00384900  0.25410700  1
  Zn  Zn84  1  0.68213200  0.12849900  0.37524500  1
  Zn  Zn85  1  0.02163200  0.35400500  0.33134700  1
  Zn  Zn86  1  0.80119800  0.46302800  0.30096600  1
  Zn  Zn87  1  0.38369400  0.08567600  0.33360100  1
  Zn  Zn88  1  0.15422600  0.58580600  0.37201100  1
  Zn  Zn89  1  0.41053700  0.67892700  0.29272700  1
  Zn  Zn90  1  0.88810300  0.08596200  0.33400700  1
  Zn  Zn91  1  0.70169500  0.22036900  0.33185000  1
  Zn  Zn92  1  0.59367100  0.98207400  0.36287500  1
  Zn  Zn93  1  0.23321600  0.08387100  0.54134400  1
  Zn  Zn94  1  0.63560200  0.87419100  0.54905300  1
  Zn  Zn95  1  0.02740200  0.77578000  0.42258000  1
  Zn  Zn96  1  0.46684700  0.17204800  0.41344300  1
  Zn  Zn97  1  0.88677100  0.96144200  0.47236700  1
  Zn  Zn98  1  0.44968200  0.98490100  0.57094900  1
  Zn  Zn99  1  0.61053700  0.27892700  0.59272700  1
  Zn  Zn100  1  0.18785700  0.07398300  0.44411000  1
  Zn  Zn101  1  0.52627100  0.71119600  0.49031500  1
  Zn  Zn102  1  0.02802700  0.19663000  0.51314000  1
  Zn  Zn103  1  0.73297100  0.67189200  0.45144800  1
  Zn  Zn104  1  0.91937900  0.53748400  0.45360400  1
  Zn  Zn105  1  0.31879000  0.23391100  0.55341900  1
  Zn  Zn106  1  0.81987500  0.29482600  0.48448800  1
  Zn  Zn107  1  0.78547100  0.28366200  0.43640100  1
  Zn  Zn108  1  0.89480200  0.44665700  0.49514000  1
  Zn  Zn109  1  0.11326900  0.40381400  0.45499900  1
  Zn  Zn110  1  0.39304600  0.96122400  0.47231400  1
  Zn  Zn111  1  0.97139100  0.17295200  0.41450600  1
  Zn  Zn112  1  0.10228300  0.92394300  0.43203600  1
  Zn  Zn113  1  0.30780400  0.75404000  0.53045500  1
  Zn  Zn114  1  0.53430200  0.19641100  0.51308700  1
  Zn  Zn115  1  0.11053700  0.27892700  0.59272700  1
  Zn  Zn116  1  0.93894100  0.62935400  0.41021000  1
  Zn  Zn117  1  0.23737900  0.67217800  0.45185400  1
  Zn  Zn118  1  0.59944100  0.40384900  0.45410700  1
  Zn  Zn119  1  0.48213200  0.52849900  0.57524500  1
  Zn  Zn120  1  0.82163200  0.75400500  0.53134700  1
  Zn  Zn121  1  0.60119800  0.86302800  0.50096600  1
  Zn  Zn122  1  0.18369400  0.48567600  0.53360100  1
  Zn  Zn123  1  0.95422600  0.98580600  0.57201100  1
  Zn  Zn124  1  0.21053700  0.07892700  0.49272700  1
  Zn  Zn125  1  0.68810300  0.48596200  0.53400700  1
  Zn  Zn126  1  0.50169500  0.62036900  0.53185000  1
  Zn  Zn127  1  0.39367100  0.38207400  0.56287500  1
  Zn  Zn128  1  0.03321600  0.48387100  0.74134400  1
  Zn  Zn129  1  0.43560200  0.27419100  0.74905300  1
  Zn  Zn130  1  0.82740200  0.17578000  0.62258000  1
  Zn  Zn131  1  0.26684700  0.57204800  0.61344300  1
  Zn  Zn132  1  0.68677100  0.36144200  0.67236700  1
  Zn  Zn133  1  0.24968200  0.38490100  0.77094900  1
  Zn  Zn134  1  0.98785700  0.47398300  0.64411000  1
  Zn  Zn135  1  0.32627100  0.11119600  0.69031500  1
  Zn  Zn136  1  0.82802700  0.59663000  0.71314000  1
  Zn  Zn137  1  0.53297100  0.07189200  0.65144800  1
  Zn  Zn138  1  0.71937900  0.93748400  0.65360400  1
  Zn  Zn139  1  0.11879000  0.63391100  0.75341900  1
  Zn  Zn140  1  0.61987500  0.69482600  0.68448800  1
  Zn  Zn141  1  0.58547100  0.68366200  0.63640100  1
  Zn  Zn142  1  0.69480200  0.84665700  0.69514000  1
  Zn  Zn143  1  0.91326900  0.80381400  0.65499900  1
  Zn  Zn144  1  0.19304600  0.36122400  0.67231400  1
  Zn  Zn145  1  0.77139100  0.57295200  0.61450600  1
  Zn  Zn146  1  0.90228300  0.32394300  0.63203600  1
  Zn  Zn147  1  0.10780400  0.15404000  0.73045500  1
  Zn  Zn148  1  0.33430200  0.59641100  0.71308700  1
  Zn  Zn149  1  0.73894100  0.02935400  0.61021000  1
  Zn  Zn150  1  0.03737900  0.07217800  0.65185400  1
  Zn  Zn151  1  0.39944100  0.80384900  0.65410700  1
  Zn  Zn152  1  0.28213200  0.92849900  0.77524500  1
  Zn  Zn153  1  0.62163200  0.15400500  0.73134700  1
  Zn  Zn154  1  0.40119800  0.26302800  0.70096600  1
  Zn  Zn155  1  0.98369400  0.88567600  0.73360100  1
  Zn  Zn156  1  0.75422600  0.38580600  0.77201100  1
  Zn  Zn157  1  0.01053700  0.47892700  0.69272700  1
  Zn  Zn158  1  0.48810300  0.88596200  0.73400700  1
  Zn  Zn159  1  0.30169500  0.02036900  0.73185000  1
  Zn  Zn160  1  0.19367100  0.78207400  0.76287500  1
