# generated using pymatgen
data_Ca34Mg71
_symmetry_space_group_name_H-M   'P 1'
_cell_length_a   10.64675200
_cell_length_b   12.06769063
_cell_length_c   44.26378200
_cell_angle_alpha   92.61821980
_cell_angle_beta   90.00000000
_cell_angle_gamma   63.82423290
_symmetry_Int_Tables_number   1
_chemical_formula_structural   Ca34Mg71
_chemical_formula_sum   'Ca34 Mg71'
_cell_volume   5097.23131442
_cell_formula_units_Z   1
loop_
 _symmetry_equiv_pos_site_id
 _symmetry_equiv_pos_as_xyz
  1  'x, y, z'
loop_
 _atom_site_type_symbol
 _atom_site_label
 _atom_site_symmetry_multiplicity
 _atom_site_fract_x
 _atom_site_fract_y
 _atom_site_fract_z
 _atom_site_occupancy
  Ca  Ca0  1  0.96546600  0.88765600  0.25434700  1
  Ca  Ca1  1  0.53213300  0.42099000  0.22101400  1
  Ca  Ca2  1  0.24299400  0.99926700  0.26231900  1
  Ca  Ca3  1  0.14299400  0.53260000  0.22898600  1
  Ca  Ca4  1  0.49879900  0.82099000  0.32101400  1
  Ca  Ca5  1  0.06546600  0.35432300  0.28768100  1
  Ca  Ca6  1  0.77632700  0.93260000  0.32898600  1
  Ca  Ca7  1  0.67632700  0.46593300  0.29565300  1
  Ca  Ca8  1  0.03213300  0.75432300  0.38768100  1
  Ca  Ca9  1  0.59879900  0.28765600  0.35434700  1
  Ca  Ca10  1  0.30966100  0.86593300  0.39565300  1
  Ca  Ca11  1  0.20966100  0.39926700  0.36231900  1
  Ca  Ca12  1  0.56546600  0.68765600  0.45434700  1
  Ca  Ca13  1  0.13213300  0.22099000  0.42101400  1
  Ca  Ca14  1  0.84299400  0.79926700  0.46231900  1
  Ca  Ca15  1  0.74299400  0.33260000  0.42898600  1
  Ca  Ca16  1  0.09879900  0.62099000  0.52101400  1
  Ca  Ca17  1  0.66546600  0.15432300  0.48768100  1
  Ca  Ca18  1  0.37632700  0.73260000  0.52898600  1
  Ca  Ca19  1  0.27632700  0.26593300  0.49565300  1
  Ca  Ca20  1  0.63213300  0.55432300  0.58768100  1
  Ca  Ca21  1  0.19879900  0.08765600  0.55434700  1
  Ca  Ca22  1  0.90966100  0.66593300  0.59565300  1
  Ca  Ca23  1  0.80966100  0.19926700  0.56231900  1
  Ca  Ca24  1  0.16546600  0.48765600  0.65434700  1
  Ca  Ca25  1  0.73213300  0.02099000  0.62101400  1
  Ca  Ca26  1  0.44299400  0.59926700  0.66231900  1
  Ca  Ca27  1  0.34299400  0.13260000  0.62898600  1
  Ca  Ca28  1  0.69879900  0.42099000  0.72101400  1
  Ca  Ca29  1  0.26546600  0.95432300  0.68768100  1
  Ca  Ca30  1  0.97632700  0.53260000  0.72898600  1
  Ca  Ca31  1  0.87632700  0.06593300  0.69565300  1
  Ca  Ca32  1  0.79879900  0.88765600  0.75434700  1
  Ca  Ca33  1  0.40966100  0.99926700  0.76231900  1
  Mg  Mg34  1  0.88677000  0.20973200  0.24206300  1
  Mg  Mg35  1  0.28875300  0.74306500  0.20873000  1
  Mg  Mg36  1  0.55224700  0.71012800  0.24166700  1
  Mg  Mg37  1  0.12287900  0.24346100  0.20833300  1
  Mg  Mg38  1  0.83756300  0.47679500  0.22500000  1
  Mg  Mg39  1  0.60423000  0.94346100  0.25833300  1
  Mg  Mg40  1  0.78835600  0.74385800  0.20793700  1
  Mg  Mg41  1  0.38637400  0.21052500  0.24127000  1
  Mg  Mg42  1  0.42010300  0.14306500  0.30873000  1
  Mg  Mg43  1  0.82208600  0.67639800  0.27539700  1
  Mg  Mg44  1  0.08558000  0.64346100  0.30833300  1
  Mg  Mg45  1  0.65621300  0.17679500  0.27500000  1
  Mg  Mg46  1  0.37089700  0.41012800  0.29166700  1
  Mg  Mg47  1  0.13756300  0.87679500  0.32500000  1
  Mg  Mg48  1  0.32169000  0.67719100  0.27460300  1
  Mg  Mg49  1  0.91970700  0.14385800  0.30793700  1
  Mg  Mg50  1  0.95343700  0.07639800  0.37539700  1
  Mg  Mg51  1  0.35542000  0.60973200  0.34206300  1
  Mg  Mg52  1  0.61891400  0.57679500  0.37500000  1
  Mg  Mg53  1  0.18954600  0.11012800  0.34166700  1
  Mg  Mg54  1  0.90423000  0.34346100  0.35833300  1
  Mg  Mg55  1  0.67089700  0.81012800  0.39166700  1
  Mg  Mg56  1  0.85502300  0.61052500  0.34127000  1
  Mg  Mg57  1  0.45304000  0.07719100  0.37460300  1
  Mg  Mg58  1  0.48677000  0.00973200  0.44206300  1
  Mg  Mg59  1  0.88875300  0.54306500  0.40873000  1
  Mg  Mg60  1  0.15224700  0.51012800  0.44166700  1
  Mg  Mg61  1  0.72287900  0.04346100  0.40833300  1
  Mg  Mg62  1  0.43756300  0.27679500  0.42500000  1
  Mg  Mg63  1  0.20423000  0.74346100  0.45833300  1
  Mg  Mg64  1  0.38835600  0.54385800  0.40793700  1
  Mg  Mg65  1  0.98637400  0.01052500  0.44127000  1
  Mg  Mg66  1  0.02010300  0.94306500  0.50873000  1
  Mg  Mg67  1  0.42208600  0.47639800  0.47539700  1
  Mg  Mg68  1  0.68558000  0.44346100  0.50833300  1
  Mg  Mg69  1  0.25621300  0.97679500  0.47500000  1
  Mg  Mg70  1  0.97089700  0.21012800  0.49166700  1
  Mg  Mg71  1  0.73756300  0.67679500  0.52500000  1
  Mg  Mg72  1  0.92169000  0.47719100  0.47460300  1
  Mg  Mg73  1  0.51970700  0.94385800  0.50793700  1
  Mg  Mg74  1  0.55343700  0.87639800  0.57539700  1
  Mg  Mg75  1  0.95542000  0.40973200  0.54206300  1
  Mg  Mg76  1  0.21891400  0.37679500  0.57500000  1
  Mg  Mg77  1  0.78954600  0.91012800  0.54166700  1
  Mg  Mg78  1  0.50423000  0.14346100  0.55833300  1
  Mg  Mg79  1  0.27089700  0.61012800  0.59166700  1
  Mg  Mg80  1  0.45502300  0.41052500  0.54127000  1
  Mg  Mg81  1  0.05304000  0.87719100  0.57460300  1
  Mg  Mg82  1  0.08677000  0.80973200  0.64206300  1
  Mg  Mg83  1  0.48875300  0.34306500  0.60873000  1
  Mg  Mg84  1  0.75224700  0.31012800  0.64166700  1
  Mg  Mg85  1  0.32287900  0.84346100  0.60833300  1
  Mg  Mg86  1  0.03756300  0.07679500  0.62500000  1
  Mg  Mg87  1  0.80423000  0.54346100  0.65833300  1
  Mg  Mg88  1  0.98835600  0.34385800  0.60793700  1
  Mg  Mg89  1  0.58637400  0.81052500  0.64127000  1
  Mg  Mg90  1  0.62010300  0.74306500  0.70873000  1
  Mg  Mg91  1  0.02208600  0.27639800  0.67539700  1
  Mg  Mg92  1  0.28558000  0.24346100  0.70833300  1
  Mg  Mg93  1  0.85621300  0.77679500  0.67500000  1
  Mg  Mg94  1  0.57089700  0.01012800  0.69166700  1
  Mg  Mg95  1  0.33756300  0.47679500  0.72500000  1
  Mg  Mg96  1  0.52169000  0.27719100  0.67460300  1
  Mg  Mg97  1  0.11970700  0.74385800  0.70793700  1
  Mg  Mg98  1  0.15343700  0.67639800  0.77539700  1
  Mg  Mg99  1  0.55542000  0.20973200  0.74206300  1
  Mg  Mg100  1  0.81891400  0.17679500  0.77500000  1
  Mg  Mg101  1  0.38954600  0.71012800  0.74166700  1
  Mg  Mg102  1  0.10423000  0.94346100  0.75833300  1
  Mg  Mg103  1  0.05502300  0.21052500  0.74127000  1
  Mg  Mg104  1  0.65304000  0.67719100  0.77460300  1
