# generated using pymatgen
data_Mg11In4
_symmetry_space_group_name_H-M   'P 1'
_cell_length_a   7.10486100
_cell_length_b   8.73688538
_cell_length_c   46.55831200
_cell_angle_alpha   94.50846536
_cell_angle_beta   90.00000000
_cell_angle_gamma   113.99151935
_symmetry_Int_Tables_number   1
_chemical_formula_structural   Mg11In4
_chemical_formula_sum   'Mg44 In16'
_cell_volume   2630.59955503
_cell_formula_units_Z   4
loop_
 _symmetry_equiv_pos_site_id
 _symmetry_equiv_pos_as_xyz
  1  'x, y, z'
loop_
 _atom_site_type_symbol
 _atom_site_label
 _atom_site_symmetry_multiplicity
 _atom_site_fract_x
 _atom_site_fract_y
 _atom_site_fract_z
 _atom_site_occupancy
  Mg  Mg0  1  0.20303600  0.07522700  0.69472300  1
  Mg  Mg1  1  0.02107500  0.37299400  0.71599200  1
  Mg  Mg2  1  0.85030200  0.70060500  0.70367800  1
  Mg  Mg3  1  0.37380800  0.74761700  0.70703600  1
  Mg  Mg4  1  0.32803600  0.32522700  0.56972300  1
  Mg  Mg5  1  0.14607500  0.62299400  0.59099200  1
  Mg  Mg6  1  0.41441900  0.49799400  0.65349200  1
  Mg  Mg7  1  0.93469100  0.20022700  0.63222300  1
  Mg  Mg8  1  0.64330500  0.28661100  0.67410700  1
  Mg  Mg9  1  0.70580500  0.41161100  0.61160700  1
  Mg  Mg10  1  0.97530200  0.95060500  0.57867800  1
  Mg  Mg11  1  0.43630800  0.87261700  0.64453600  1
  Mg  Mg12  1  0.49880800  0.99761700  0.58203600  1
  Mg  Mg13  1  0.91280200  0.82560500  0.64117800  1
  Mg  Mg14  1  0.45303600  0.57522700  0.44472300  1
  Mg  Mg15  1  0.27107500  0.87299400  0.46599200  1
  Mg  Mg16  1  0.53941900  0.74799400  0.52849200  1
  Mg  Mg17  1  0.05969100  0.45022700  0.50722300  1
  Mg  Mg18  1  0.76830500  0.53661100  0.54910700  1
  Mg  Mg19  1  0.83080500  0.66161100  0.48660700  1
  Mg  Mg20  1  0.10030200  0.20060500  0.45367800  1
  Mg  Mg21  1  0.56130800  0.12261700  0.51953600  1
  Mg  Mg22  1  0.62380800  0.24761700  0.45703600  1
  Mg  Mg23  1  0.03780200  0.07560500  0.51617800  1
  Mg  Mg24  1  0.57803600  0.82522700  0.31972300  1
  Mg  Mg25  1  0.39607500  0.12299400  0.34099200  1
  Mg  Mg26  1  0.66441900  0.99799400  0.40349200  1
  Mg  Mg27  1  0.18469100  0.70022700  0.38222300  1
  Mg  Mg28  1  0.89330500  0.78661100  0.42410700  1
  Mg  Mg29  1  0.95580500  0.91161100  0.36160700  1
  Mg  Mg30  1  0.22530200  0.45060500  0.32867800  1
  Mg  Mg31  1  0.68630800  0.37261700  0.39453600  1
  Mg  Mg32  1  0.74880800  0.49761700  0.33203600  1
  Mg  Mg33  1  0.16280200  0.32560500  0.39117800  1
  Mg  Mg34  1  0.70303600  0.07522700  0.19472300  1
  Mg  Mg35  1  0.52107500  0.37299400  0.21599200  1
  Mg  Mg36  1  0.78941900  0.24799400  0.27849200  1
  Mg  Mg37  1  0.30969100  0.95022700  0.25722300  1
  Mg  Mg38  1  0.01830500  0.03661100  0.29910700  1
  Mg  Mg39  1  0.08080500  0.16161100  0.23660700  1
  Mg  Mg40  1  0.35030200  0.70060500  0.20367800  1
  Mg  Mg41  1  0.81130800  0.62261700  0.26953600  1
  Mg  Mg42  1  0.87380800  0.74761700  0.20703600  1
  Mg  Mg43  1  0.28780200  0.57560500  0.26617800  1
  In  In44  1  0.76644500  0.01054500  0.69010200  1
  In  In45  1  0.58266600  0.68767600  0.59561200  1
  In  In46  1  0.04251100  0.56267600  0.65811200  1
  In  In47  1  0.30660000  0.13554500  0.62760200  1
  In  In48  1  0.89144500  0.26054500  0.56510200  1
  In  In49  1  0.70766600  0.93767600  0.47061200  1
  In  In50  1  0.16751100  0.81267600  0.53311200  1
  In  In51  1  0.43160000  0.38554500  0.50260200  1
  In  In52  1  0.01644500  0.51054500  0.44010200  1
  In  In53  1  0.83266600  0.18767600  0.34561200  1
  In  In54  1  0.29251100  0.06267600  0.40811200  1
  In  In55  1  0.55660000  0.63554500  0.37760200  1
  In  In56  1  0.14144500  0.76054500  0.31510200  1
  In  In57  1  0.95766600  0.43767600  0.22061200  1
  In  In58  1  0.41751100  0.31267600  0.28311200  1
  In  In59  1  0.68160000  0.88554500  0.25260200  1
