# generated using pymatgen
data_La4Mg
_symmetry_space_group_name_H-M   'P 1'
_cell_length_a   3.76223921
_cell_length_b   12.59775334
_cell_length_c   45.02321400
_cell_angle_alpha   82.52614143
_cell_angle_beta   87.60542978
_cell_angle_gamma   81.41237189
_symmetry_Int_Tables_number   1
_chemical_formula_structural   La4Mg
_chemical_formula_sum   'La28 Mg7'
_cell_volume   2091.51562882
_cell_formula_units_Z   7
loop_
 _symmetry_equiv_pos_site_id
 _symmetry_equiv_pos_as_xyz
  1  'x, y, z'
loop_
 _atom_site_type_symbol
 _atom_site_label
 _atom_site_symmetry_multiplicity
 _atom_site_fract_x
 _atom_site_fract_y
 _atom_site_fract_z
 _atom_site_occupancy
  La  La0  1  0.59003400  0.03576900  0.78416400  1
  La  La1  1  0.19673400  0.87292700  0.73360600  1
  La  La2  1  0.80326600  0.62707300  0.76639400  1
  La  La3  1  0.40996600  0.46423100  0.71583600  1
  La  La4  1  0.59003400  0.11910200  0.70083100  1
  La  La5  1  0.19673400  0.95626000  0.65027200  1
  La  La6  1  0.80326600  0.71040600  0.68306100  1
  La  La7  1  0.40996600  0.54756400  0.63250300  1
  La  La8  1  0.59003400  0.20243600  0.61749700  1
  La  La9  1  0.19673400  0.03959400  0.56693900  1
  La  La10  1  0.80326600  0.79374000  0.59972800  1
  La  La11  1  0.40996600  0.63089800  0.54916900  1
  La  La12  1  0.59003400  0.28576900  0.53416400  1
  La  La13  1  0.19673400  0.12292700  0.48360600  1
  La  La14  1  0.80326600  0.87707300  0.51639400  1
  La  La15  1  0.40996600  0.71423100  0.46583600  1
  La  La16  1  0.59003400  0.36910200  0.45083100  1
  La  La17  1  0.19673400  0.20626000  0.40027200  1
  La  La18  1  0.80326600  0.96040600  0.43306100  1
  La  La19  1  0.40996600  0.79756400  0.38250300  1
  La  La20  1  0.59003400  0.45243600  0.36749700  1
  La  La21  1  0.19673400  0.28959400  0.31693900  1
  La  La22  1  0.80326600  0.04374000  0.34972800  1
  La  La23  1  0.40996600  0.88089800  0.29916900  1
  La  La24  1  0.59003400  0.53576900  0.28416400  1
  La  La25  1  0.19673400  0.37292700  0.23360600  1
  La  La26  1  0.80326600  0.12707300  0.26639400  1
  La  La27  1  0.40996600  0.96423100  0.21583600  1
  Mg  Mg28  1  1.00000000  0.25000000  0.75000000  1
  Mg  Mg29  1  0.00000000  0.33333300  0.66666700  1
  Mg  Mg30  1  1.00000000  0.41666700  0.58333300  1
  Mg  Mg31  1  1.00000000  0.50000000  0.50000000  1
  Mg  Mg32  1  0.00000000  0.58333300  0.41666700  1
  Mg  Mg33  1  0.00000000  0.66666700  0.33333300  1
  Mg  Mg34  1  0.00000000  0.75000000  0.25000000  1
