# generated using pymatgen
data_Mg120Zn209
_symmetry_space_group_name_H-M   'P 1'
_cell_length_a   15.05205970
_cell_length_b   15.53344962
_cell_length_c   44.08704400
_cell_angle_alpha   96.16286714
_cell_angle_beta   84.01794547
_cell_angle_gamma   68.44884142
_symmetry_Int_Tables_number   1
_chemical_formula_structural   Mg120Zn209
_chemical_formula_sum   'Mg120 Zn209'
_cell_volume   9416.24976546
_cell_formula_units_Z   1
loop_
 _symmetry_equiv_pos_site_id
 _symmetry_equiv_pos_as_xyz
  1  'x, y, z'
loop_
 _atom_site_type_symbol
 _atom_site_label
 _atom_site_symmetry_multiplicity
 _atom_site_fract_x
 _atom_site_fract_y
 _atom_site_fract_z
 _atom_site_occupancy
  Mg  Mg0  1  0.77788700  0.12906100  0.22841000  1
  Mg  Mg1  1  0.13116300  0.34850400  0.26145800  1
  Mg  Mg2  1  0.65537800  0.69328100  0.24512800  1
  Mg  Mg3  1  0.94852300  0.10823200  0.26417900  1
  Mg  Mg4  1  0.98559100  0.41411700  0.21580100  1
  Mg  Mg5  1  0.64043400  0.04063000  0.26821200  1
  Mg  Mg6  1  0.76962600  0.47454600  0.25062000  1
  Mg  Mg7  1  0.15423700  0.99452800  0.23763900  1
  Mg  Mg8  1  0.66577500  0.34622700  0.22194100  1
  Mg  Mg9  1  0.11716900  0.68864300  0.28601700  1
  Mg  Mg10  1  0.44738200  0.40947800  0.25669000  1
  Mg  Mg11  1  0.43698400  0.75653200  0.27987700  1
  Mg  Mg12  1  0.10329900  0.18477800  0.28921900  1
  Mg  Mg13  1  0.75582400  0.82305600  0.27375600  1
  Mg  Mg14  1  0.34693600  0.27970300  0.22806200  1
  Mg  Mg15  1  0.33313400  0.62821400  0.25119800  1
  Mg  Mg16  1  0.32487300  0.97369900  0.27340800  1
  Mg  Mg17  1  0.46232500  0.06213000  0.23360600  1
  Mg  Mg18  1  0.97159700  0.75425600  0.24036000  1
  Mg  Mg19  1  0.99946100  0.91798200  0.21259900  1
  Mg  Mg20  1  0.87788700  0.22906100  0.32841000  1
  Mg  Mg21  1  0.23116300  0.44850400  0.36145800  1
  Mg  Mg22  1  0.75537800  0.79328100  0.34512800  1
  Mg  Mg23  1  0.04852300  0.20823200  0.36417900  1
  Mg  Mg24  1  0.08559100  0.51411700  0.31580100  1
  Mg  Mg25  1  0.74043400  0.14063000  0.36821200  1
  Mg  Mg26  1  0.86962600  0.57454600  0.35062000  1
  Mg  Mg27  1  0.25423700  0.09452800  0.33763900  1
  Mg  Mg28  1  0.76577500  0.44622700  0.32194100  1
  Mg  Mg29  1  0.21716900  0.78864300  0.38601700  1
  Mg  Mg30  1  0.54738200  0.50947800  0.35669000  1
  Mg  Mg31  1  0.53698400  0.85653200  0.37987700  1
  Mg  Mg32  1  0.20329900  0.28477800  0.38921900  1
  Mg  Mg33  1  0.85582400  0.92305600  0.37375600  1
  Mg  Mg34  1  0.44693600  0.37970300  0.32806200  1
  Mg  Mg35  1  0.43313400  0.72821400  0.35119800  1
  Mg  Mg36  1  0.42487300  0.07369900  0.37340800  1
  Mg  Mg37  1  0.56232500  0.16213000  0.33360600  1
  Mg  Mg38  1  0.07159700  0.85425600  0.34036000  1
  Mg  Mg39  1  0.09946100  0.01798200  0.31259900  1
  Mg  Mg40  1  0.97788700  0.32906100  0.42841000  1
  Mg  Mg41  1  0.33116300  0.54850400  0.46145800  1
  Mg  Mg42  1  0.85537800  0.89328100  0.44512800  1
  Mg  Mg43  1  0.14852300  0.30823200  0.46417900  1
  Mg  Mg44  1  0.18559100  0.61411700  0.41580100  1
  Mg  Mg45  1  0.84043400  0.24063000  0.46821200  1
  Mg  Mg46  1  0.96962600  0.67454600  0.45062000  1
  Mg  Mg47  1  0.35423700  0.19452800  0.43763900  1
  Mg  Mg48  1  0.86577500  0.54622700  0.42194100  1
  Mg  Mg49  1  0.31716900  0.88864300  0.48601700  1
  Mg  Mg50  1  0.64738200  0.60947800  0.45669000  1
  Mg  Mg51  1  0.63698400  0.95653200  0.47987700  1
  Mg  Mg52  1  0.30329900  0.38477800  0.48921900  1
  Mg  Mg53  1  0.95582400  0.02305600  0.47375600  1
  Mg  Mg54  1  0.54693600  0.47970300  0.42806200  1
  Mg  Mg55  1  0.53313400  0.82821400  0.45119800  1
  Mg  Mg56  1  0.52487300  0.17369900  0.47340800  1
  Mg  Mg57  1  0.66232500  0.26213000  0.43360600  1
  Mg  Mg58  1  0.17159700  0.95425600  0.44036000  1
  Mg  Mg59  1  0.19946100  0.11798200  0.41259900  1
  Mg  Mg60  1  0.07788700  0.42906100  0.52841000  1
  Mg  Mg61  1  0.43116300  0.64850400  0.56145800  1
  Mg  Mg62  1  0.95537800  0.99328100  0.54512800  1
  Mg  Mg63  1  0.24852300  0.40823200  0.56417900  1
  Mg  Mg64  1  0.28559100  0.71411700  0.51580100  1
  Mg  Mg65  1  0.94043400  0.34063000  0.56821200  1
  Mg  Mg66  1  0.06962600  0.77454600  0.55062000  1
  Mg  Mg67  1  0.45423700  0.29452800  0.53763900  1
  Mg  Mg68  1  0.96577500  0.64622700  0.52194100  1
  Mg  Mg69  1  0.41716900  0.98864300  0.58601700  1
  Mg  Mg70  1  0.74738200  0.70947800  0.55669000  1
  Mg  Mg71  1  0.73698400  0.05653200  0.57987700  1
  Mg  Mg72  1  0.40329900  0.48477800  0.58921900  1
  Mg  Mg73  1  0.05582400  0.12305600  0.57375600  1
  Mg  Mg74  1  0.64693600  0.57970300  0.52806200  1
  Mg  Mg75  1  0.63313400  0.92821400  0.55119800  1
  Mg  Mg76  1  0.62487300  0.27369900  0.57340800  1
  Mg  Mg77  1  0.76232500  0.36213000  0.53360600  1
  Mg  Mg78  1  0.27159700  0.05425600  0.54036000  1
  Mg  Mg79  1  0.29946100  0.21798200  0.51259900  1
  Mg  Mg80  1  0.17788700  0.52906100  0.62841000  1
  Mg  Mg81  1  0.53116300  0.74850400  0.66145800  1
  Mg  Mg82  1  0.05537800  0.09328100  0.64512800  1
  Mg  Mg83  1  0.34852300  0.50823200  0.66417900  1
  Mg  Mg84  1  0.38559100  0.81411700  0.61580100  1
  Mg  Mg85  1  0.04043400  0.44063000  0.66821200  1
  Mg  Mg86  1  0.16962600  0.87454600  0.65062000  1
  Mg  Mg87  1  0.55423700  0.39452800  0.63763900  1
  Mg  Mg88  1  0.06577500  0.74622700  0.62194100  1
  Mg  Mg89  1  0.51716900  0.08864300  0.68601700  1
  Mg  Mg90  1  0.84738200  0.80947800  0.65669000  1
  Mg  Mg91  1  0.83698400  0.15653200  0.67987700  1
  Mg  Mg92  1  0.50329900  0.58477800  0.68921900  1
  Mg  Mg93  1  0.15582400  0.22305600  0.67375600  1
  Mg  Mg94  1  0.74693600  0.67970300  0.62806200  1
  Mg  Mg95  1  0.73313400  0.02821400  0.65119800  1
  Mg  Mg96  1  0.72487300  0.37369900  0.67340800  1
  Mg  Mg97  1  0.86232500  0.46213000  0.63360600  1
  Mg  Mg98  1  0.37159700  0.15425600  0.64036000  1
  Mg  Mg99  1  0.39946100  0.31798200  0.61259900  1
  Mg  Mg100  1  0.27788700  0.62906100  0.72841000  1
  Mg  Mg101  1  0.63116300  0.84850400  0.76145800  1
  Mg  Mg102  1  0.15537800  0.19328100  0.74512800  1
  Mg  Mg103  1  0.44852300  0.60823200  0.76417900  1
  Mg  Mg104  1  0.48559100  0.91411700  0.71580100  1
  Mg  Mg105  1  0.14043400  0.54063000  0.76821200  1
  Mg  Mg106  1  0.26962600  0.97454600  0.75062000  1
  Mg  Mg107  1  0.65423700  0.49452800  0.73763900  1
  Mg  Mg108  1  0.16577500  0.84622700  0.72194100  1
  Mg  Mg109  1  0.61716900  0.18864300  0.78601700  1
  Mg  Mg110  1  0.94738200  0.90947800  0.75669000  1
  Mg  Mg111  1  0.93698400  0.25653200  0.77987700  1
  Mg  Mg112  1  0.60329900  0.68477800  0.78921900  1
  Mg  Mg113  1  0.25582400  0.32305600  0.77375600  1
  Mg  Mg114  1  0.84693600  0.77970300  0.72806200  1
  Mg  Mg115  1  0.83313400  0.12821400  0.75119800  1
  Mg  Mg116  1  0.82487300  0.47369900  0.77340800  1
  Mg  Mg117  1  0.96232500  0.56213000  0.73360600  1
  Mg  Mg118  1  0.47159700  0.25425600  0.74036000  1
  Mg  Mg119  1  0.49946100  0.41798200  0.71259900  1
  Zn  Zn120  1  0.93202300  0.49052800  0.28234700  1
  Zn  Zn121  1  0.06344000  0.21029500  0.22721100  1
  Zn  Zn122  1  0.60456700  0.42812600  0.29050700  1
  Zn  Zn123  1  0.17417200  0.78113000  0.22897000  1
  Zn  Zn124  1  0.18535200  0.43002300  0.20631600  1
  Zn  Zn125  1  0.88158800  0.27175900  0.22175700  1
  Zn  Zn126  1  0.55138000  0.55138000  0.25090900  1
  Zn  Zn127  1  0.17073700  0.61223200  0.21947100  1
  Zn  Zn128  1  0.45647300  0.21860000  0.28103500  1
  Zn  Zn129  1  0.86643500  0.62225400  0.24490600  1
  Zn  Zn130  1  0.60972900  0.25437900  0.27838500  1
  Zn  Zn131  1  0.75760300  0.13559400  0.29831900  1
  Zn  Zn132  1  0.76156200  0.63222100  0.29814900  1
  Zn  Zn133  1  0.81618900  0.73974700  0.20689900  1
  Zn  Zn134  1  0.03932000  0.89246500  0.27460700  1
  Zn  Zn135  1  0.64628600  0.88416000  0.22078300  1
  Zn  Zn136  1  0.80731300  0.91935900  0.21854600  1
  Zn  Zn137  1  0.23632500  0.48050600  0.25691200  1
  Zn  Zn138  1  0.22117200  0.83100100  0.28006200  1
  Zn  Zn139  1  0.34119800  0.47053800  0.20366900  1
  Zn  Zn140  1  0.29544700  0.18340000  0.28327300  1
  Zn  Zn141  1  0.91740700  0.67273700  0.29550200  1
  Zn  Zn142  1  0.77183500  0.29017200  0.27423900  1
  Zn  Zn143  1  0.55890900  0.20453800  0.22906900  1
  Zn  Zn144  1  0.85803600  0.96926000  0.26662800  1
  Zn  Zn145  1  0.33092500  0.81258800  0.22757900  1
  Zn  Zn146  1  0.24472400  0.13350000  0.23519100  1
  Zn  Zn147  1  0.28657100  0.36301200  0.29491900  1
  Zn  Zn148  1  0.54385100  0.89822200  0.27274900  1
  Zn  Zn149  1  0.92858800  0.32163000  0.27284900  1
  Zn  Zn150  1  0.05138000  0.55138000  0.25090900  1
  Zn  Zn151  1  0.49303100  0.84838000  0.22343300  1
  Zn  Zn152  1  0.34515700  0.96716600  0.20349900  1
  Zn  Zn153  1  0.49819300  0.67463400  0.21131100  1
  Zn  Zn154  1  0.03202300  0.59052800  0.38234700  1
  Zn  Zn155  1  0.16344000  0.31029500  0.32721100  1
  Zn  Zn156  1  0.70456700  0.52812600  0.39050700  1
  Zn  Zn157  1  0.27417200  0.88113000  0.32897000  1
  Zn  Zn158  1  0.28535200  0.53002300  0.30631600  1
  Zn  Zn159  1  0.98158800  0.37175900  0.32175700  1
  Zn  Zn160  1  0.65138000  0.65138000  0.35090900  1
  Zn  Zn161  1  0.27073700  0.71223200  0.31947100  1
  Zn  Zn162  1  0.55647300  0.31860000  0.38103500  1
  Zn  Zn163  1  0.96643500  0.72225400  0.34490600  1
  Zn  Zn164  1  0.70972900  0.35437900  0.37838500  1
  Zn  Zn165  1  0.85760300  0.23559400  0.39831900  1
  Zn  Zn166  1  0.86156200  0.73222100  0.39814900  1
  Zn  Zn167  1  0.91618900  0.83974700  0.30689900  1
  Zn  Zn168  1  0.13932000  0.99246500  0.37460700  1
  Zn  Zn169  1  0.74628600  0.98416000  0.32078300  1
  Zn  Zn170  1  0.90731300  0.01935900  0.31854600  1
  Zn  Zn171  1  0.33632500  0.58050600  0.35691200  1
  Zn  Zn172  1  0.32117200  0.93100100  0.38006200  1
  Zn  Zn173  1  0.44119800  0.57053800  0.30366900  1
  Zn  Zn174  1  0.39544700  0.28340000  0.38327300  1
  Zn  Zn175  1  0.01740700  0.77273700  0.39550200  1
  Zn  Zn176  1  0.60138000  0.60138000  0.30090900  1
  Zn  Zn177  1  0.87183500  0.39017200  0.37423900  1
  Zn  Zn178  1  0.65890900  0.30453800  0.32906900  1
  Zn  Zn179  1  0.95803600  0.06926000  0.36662800  1
  Zn  Zn180  1  0.43092500  0.91258800  0.32757900  1
  Zn  Zn181  1  0.34472400  0.23350000  0.33519100  1
  Zn  Zn182  1  0.38657100  0.46301200  0.39491900  1
  Zn  Zn183  1  0.64385100  0.99822200  0.37274900  1
  Zn  Zn184  1  0.02858800  0.42163000  0.37284900  1
  Zn  Zn185  1  0.15138000  0.65138000  0.35090900  1
  Zn  Zn186  1  0.59303100  0.94838000  0.32343300  1
  Zn  Zn187  1  0.44515700  0.06716600  0.30349900  1
  Zn  Zn188  1  0.59819300  0.77463400  0.31131100  1
  Zn  Zn189  1  0.13202300  0.69052800  0.48234700  1
  Zn  Zn190  1  0.26344000  0.41029500  0.42721100  1
  Zn  Zn191  1  0.80456700  0.62812600  0.49050700  1
  Zn  Zn192  1  0.37417200  0.98113000  0.42897000  1
  Zn  Zn193  1  0.38535200  0.63002300  0.40631600  1
  Zn  Zn194  1  0.08158800  0.47175900  0.42175700  1
  Zn  Zn195  1  0.75138000  0.75138000  0.45090900  1
  Zn  Zn196  1  0.37073700  0.81223200  0.41947100  1
  Zn  Zn197  1  0.65647300  0.41860000  0.48103500  1
  Zn  Zn198  1  0.06643500  0.82225400  0.44490600  1
  Zn  Zn199  1  0.80972900  0.45437900  0.47838500  1
  Zn  Zn200  1  0.95760300  0.33559400  0.49831900  1
  Zn  Zn201  1  0.96156200  0.83222100  0.49814900  1
  Zn  Zn202  1  0.01618900  0.93974700  0.40689900  1
  Zn  Zn203  1  0.23932000  0.09246500  0.47460700  1
  Zn  Zn204  1  0.84628600  0.08416000  0.42078300  1
  Zn  Zn205  1  0.00731300  0.11935900  0.41854600  1
  Zn  Zn206  1  0.43632500  0.68050600  0.45691200  1
  Zn  Zn207  1  0.42117200  0.03100100  0.48006200  1
  Zn  Zn208  1  0.54119800  0.67053800  0.40366900  1
  Zn  Zn209  1  0.49544700  0.38340000  0.48327300  1
  Zn  Zn210  1  0.11740700  0.87273700  0.49550200  1
  Zn  Zn211  1  0.70138000  0.70138000  0.40090900  1
  Zn  Zn212  1  0.97183500  0.49017200  0.47423900  1
  Zn  Zn213  1  0.75890900  0.40453800  0.42906900  1
  Zn  Zn214  1  0.05803600  0.16926000  0.46662800  1
  Zn  Zn215  1  0.53092500  0.01258800  0.42757900  1
  Zn  Zn216  1  0.44472400  0.33350000  0.43519100  1
  Zn  Zn217  1  0.48657100  0.56301200  0.49491900  1
  Zn  Zn218  1  0.74385100  0.09822200  0.47274900  1
  Zn  Zn219  1  0.12858800  0.52163000  0.47284900  1
  Zn  Zn220  1  0.25138000  0.75138000  0.45090900  1
  Zn  Zn221  1  0.69303100  0.04838000  0.42343300  1
  Zn  Zn222  1  0.54515700  0.16716600  0.40349900  1
  Zn  Zn223  1  0.69819300  0.87463400  0.41131100  1
  Zn  Zn224  1  0.23202300  0.79052800  0.58234700  1
  Zn  Zn225  1  0.36344000  0.51029500  0.52721100  1
  Zn  Zn226  1  0.90456700  0.72812600  0.59050700  1
  Zn  Zn227  1  0.47417200  0.08113000  0.52897000  1
  Zn  Zn228  1  0.48535200  0.73002300  0.50631600  1
  Zn  Zn229  1  0.18158800  0.57175900  0.52175700  1
  Zn  Zn230  1  0.85138000  0.85138000  0.55090900  1
  Zn  Zn231  1  0.47073700  0.91223200  0.51947100  1
  Zn  Zn232  1  0.75647300  0.51860000  0.58103500  1
  Zn  Zn233  1  0.16643500  0.92225400  0.54490600  1
  Zn  Zn234  1  0.90972900  0.55437900  0.57838500  1
  Zn  Zn235  1  0.05760300  0.43559400  0.59831900  1
  Zn  Zn236  1  0.06156200  0.93222100  0.59814900  1
  Zn  Zn237  1  0.11618900  0.03974700  0.50689900  1
  Zn  Zn238  1  0.33932000  0.19246500  0.57460700  1
  Zn  Zn239  1  0.94628600  0.18416000  0.52078300  1
  Zn  Zn240  1  0.10731300  0.21935900  0.51854600  1
  Zn  Zn241  1  0.53632500  0.78050600  0.55691200  1
  Zn  Zn242  1  0.52117200  0.13100100  0.58006200  1
  Zn  Zn243  1  0.64119800  0.77053800  0.50366900  1
  Zn  Zn244  1  0.59544700  0.48340000  0.58327300  1
  Zn  Zn245  1  0.21740700  0.97273700  0.59550200  1
  Zn  Zn246  1  0.80138000  0.80138000  0.50090900  1
  Zn  Zn247  1  0.07183500  0.59017200  0.57423900  1
  Zn  Zn248  1  0.85890900  0.50453800  0.52906900  1
  Zn  Zn249  1  0.15803600  0.26926000  0.56662800  1
  Zn  Zn250  1  0.63092500  0.11258800  0.52757900  1
  Zn  Zn251  1  0.54472400  0.43350000  0.53519100  1
  Zn  Zn252  1  0.58657100  0.66301200  0.59491900  1
  Zn  Zn253  1  0.84385100  0.19822200  0.57274900  1
  Zn  Zn254  1  0.22858800  0.62163000  0.57284900  1
  Zn  Zn255  1  0.35138000  0.85138000  0.55090900  1
  Zn  Zn256  1  0.79303100  0.14838000  0.52343300  1
  Zn  Zn257  1  0.64515700  0.26716600  0.50349900  1
  Zn  Zn258  1  0.79819300  0.97463400  0.51131100  1
  Zn  Zn259  1  0.33202300  0.89052800  0.68234700  1
  Zn  Zn260  1  0.46344000  0.61029500  0.62721100  1
  Zn  Zn261  1  0.00456700  0.82812600  0.69050700  1
  Zn  Zn262  1  0.57417200  0.18113000  0.62897000  1
  Zn  Zn263  1  0.58535200  0.83002300  0.60631600  1
  Zn  Zn264  1  0.28158800  0.67175900  0.62175700  1
  Zn  Zn265  1  0.95138000  0.95138000  0.65090900  1
  Zn  Zn266  1  0.57073700  0.01223200  0.61947100  1
  Zn  Zn267  1  0.85647300  0.61860000  0.68103500  1
  Zn  Zn268  1  0.26643500  0.02225400  0.64490600  1
  Zn  Zn269  1  0.00972900  0.65437900  0.67838500  1
  Zn  Zn270  1  0.15760300  0.53559400  0.69831900  1
  Zn  Zn271  1  0.16156200  0.03222100  0.69814900  1
  Zn  Zn272  1  0.21618900  0.13974700  0.60689900  1
  Zn  Zn273  1  0.43932000  0.29246500  0.67460700  1
  Zn  Zn274  1  0.04628600  0.28416000  0.62078300  1
  Zn  Zn275  1  0.20731300  0.31935900  0.61854600  1
  Zn  Zn276  1  0.63632500  0.88050600  0.65691200  1
  Zn  Zn277  1  0.62117200  0.23100100  0.68006200  1
  Zn  Zn278  1  0.74119800  0.87053800  0.60366900  1
  Zn  Zn279  1  0.69544700  0.58340000  0.68327300  1
  Zn  Zn280  1  0.31740700  0.07273700  0.69550200  1
  Zn  Zn281  1  0.90138000  0.90138000  0.60090900  1
  Zn  Zn282  1  0.17183500  0.69017200  0.67423900  1
  Zn  Zn283  1  0.95890900  0.60453800  0.62906900  1
  Zn  Zn284  1  0.25803600  0.36926000  0.66662800  1
  Zn  Zn285  1  0.73092500  0.21258800  0.62757900  1
  Zn  Zn286  1  0.64472400  0.53350000  0.63519100  1
  Zn  Zn287  1  0.68657100  0.76301200  0.69491900  1
  Zn  Zn288  1  0.94385100  0.29822200  0.67274900  1
  Zn  Zn289  1  0.32858800  0.72163000  0.67284900  1
  Zn  Zn290  1  0.45138000  0.95138000  0.65090900  1
  Zn  Zn291  1  0.89303100  0.24838000  0.62343300  1
  Zn  Zn292  1  0.74515700  0.36716600  0.60349900  1
  Zn  Zn293  1  0.89819300  0.07463400  0.61131100  1
  Zn  Zn294  1  0.43202300  0.99052800  0.78234700  1
  Zn  Zn295  1  0.56344000  0.71029500  0.72721100  1
  Zn  Zn296  1  0.10456700  0.92812600  0.79050700  1
  Zn  Zn297  1  0.67417200  0.28113000  0.72897000  1
  Zn  Zn298  1  0.68535200  0.93002300  0.70631600  1
  Zn  Zn299  1  0.38158800  0.77175900  0.72175700  1
  Zn  Zn300  1  0.05138000  0.05138000  0.75090900  1
  Zn  Zn301  1  0.67073700  0.11223200  0.71947100  1
  Zn  Zn302  1  0.95647300  0.71860000  0.78103500  1
  Zn  Zn303  1  0.36643500  0.12225400  0.74490600  1
  Zn  Zn304  1  0.10972900  0.75437900  0.77838500  1
  Zn  Zn305  1  0.25760300  0.63559400  0.79831900  1
  Zn  Zn306  1  0.26156200  0.13222100  0.79814900  1
  Zn  Zn307  1  0.31618900  0.23974700  0.70689900  1
  Zn  Zn308  1  0.53932000  0.39246500  0.77460700  1
  Zn  Zn309  1  0.14628600  0.38416000  0.72078300  1
  Zn  Zn310  1  0.30731300  0.41935900  0.71854600  1
  Zn  Zn311  1  0.73632500  0.98050600  0.75691200  1
  Zn  Zn312  1  0.72117200  0.33100100  0.78006200  1
  Zn  Zn313  1  0.84119800  0.97053800  0.70366900  1
  Zn  Zn314  1  0.79544700  0.68340000  0.78327300  1
  Zn  Zn315  1  0.41740700  0.17273700  0.79550200  1
  Zn  Zn316  1  0.00138000  0.00138000  0.70090900  1
  Zn  Zn317  1  0.27183500  0.79017200  0.77423900  1
  Zn  Zn318  1  0.05890900  0.70453800  0.72906900  1
  Zn  Zn319  1  0.35803600  0.46926000  0.76662800  1
  Zn  Zn320  1  0.83092500  0.31258800  0.72757900  1
  Zn  Zn321  1  0.74472400  0.63350000  0.73519100  1
  Zn  Zn322  1  0.78657100  0.86301200  0.79491900  1
  Zn  Zn323  1  0.04385100  0.39822200  0.77274900  1
  Zn  Zn324  1  0.42858800  0.82163000  0.77284900  1
  Zn  Zn325  1  0.55138000  0.05138000  0.75090900  1
  Zn  Zn326  1  0.99303100  0.34838000  0.72343300  1
  Zn  Zn327  1  0.84515700  0.46716600  0.70349900  1
  Zn  Zn328  1  0.99819300  0.17463400  0.71131100  1
