# generated using pymatgen
data_Nd2Mg19
_symmetry_space_group_name_H-M   'P 1'
_cell_length_a   5.92934782
_cell_length_b   7.85671580
_cell_length_c   51.01750000
_cell_angle_alpha   88.74353249
_cell_angle_beta   86.66861141
_cell_angle_gamma   67.83082327
_symmetry_Int_Tables_number   1
_chemical_formula_structural   Nd2Mg19
_chemical_formula_sum   'Nd4 Mg38'
_cell_volume   2197.24346205
_cell_formula_units_Z   2
loop_
 _symmetry_equiv_pos_site_id
 _symmetry_equiv_pos_as_xyz
  1  'x, y, z'
loop_
 _atom_site_type_symbol
 _atom_site_label
 _atom_site_symmetry_multiplicity
 _atom_site_fract_x
 _atom_site_fract_y
 _atom_site_fract_z
 _atom_site_occupancy
  Nd  Nd0  1  0.51063900  0.31938000  0.65934100  1
  Nd  Nd1  1  0.08206800  0.31938000  0.51648400  1
  Nd  Nd2  1  0.65349700  0.31938000  0.37362600  1
  Nd  Nd3  1  0.22492500  0.31938000  0.23076900  1
  Mg  Mg4  1  0.01063900  0.81938000  0.65934100  1
  Mg  Mg5  1  0.51063900  0.81938000  0.65934100  1
  Mg  Mg6  1  0.46049000  0.53214200  0.54687800  1
  Mg  Mg7  1  0.35980600  0.67132400  0.60906300  1
  Mg  Mg8  1  0.71175000  0.96743700  0.60906300  1
  Mg  Mg9  1  0.88095700  0.67132400  0.56676100  1
  Mg  Mg10  1  0.91945600  0.53214200  0.62894600  1
  Mg  Mg11  1  0.58206800  0.81938000  0.51648400  1
  Mg  Mg12  1  0.13221800  0.10661900  0.62894600  1
  Mg  Mg13  1  0.79635400  0.31938000  0.58791200  1
  Mg  Mg14  1  0.23290100  0.96743700  0.56676100  1
  Mg  Mg15  1  0.67325200  0.10661900  0.54687800  1
  Mg  Mg16  1  0.29635400  0.31938000  0.58791200  1
  Mg  Mg17  1  0.08206800  0.81938000  0.51648400  1
  Mg  Mg18  1  0.03191800  0.53214200  0.40402100  1
  Mg  Mg19  1  0.93123500  0.67132400  0.46620600  1
  Mg  Mg20  1  0.28317900  0.96743700  0.46620600  1
  Mg  Mg21  1  0.45238600  0.67132400  0.42390400  1
  Mg  Mg22  1  0.49088400  0.53214200  0.48608900  1
  Mg  Mg23  1  0.15349700  0.81938000  0.37362600  1
  Mg  Mg24  1  0.70364600  0.10661900  0.48608900  1
  Mg  Mg25  1  0.36778200  0.31938000  0.44505500  1
  Mg  Mg26  1  0.80433000  0.96743700  0.42390400  1
  Mg  Mg27  1  0.24468000  0.10661900  0.40402100  1
  Mg  Mg28  1  0.86778200  0.31938000  0.44505500  1
  Mg  Mg29  1  0.65349700  0.81938000  0.37362600  1
  Mg  Mg30  1  0.60334700  0.53214200  0.26116400  1
  Mg  Mg31  1  0.50266400  0.67132400  0.32334900  1
  Mg  Mg32  1  0.85460700  0.96743700  0.32334900  1
  Mg  Mg33  1  0.02381400  0.67132400  0.28104700  1
  Mg  Mg34  1  0.06231300  0.53214200  0.34323200  1
  Mg  Mg35  1  0.72492500  0.81938000  0.23076900  1
  Mg  Mg36  1  0.27507500  0.10661900  0.34323200  1
  Mg  Mg37  1  0.93921100  0.31938000  0.30219800  1
  Mg  Mg38  1  0.37575800  0.96743700  0.28104700  1
  Mg  Mg39  1  0.81610900  0.10661900  0.26116400  1
  Mg  Mg40  1  0.43921100  0.31938000  0.30219800  1
  Mg  Mg41  1  0.22492500  0.81938000  0.23076900  1
