# generated using pymatgen
data_Mg3Tl
_symmetry_space_group_name_H-M   'P 1'
_cell_length_a   5.19908500
_cell_length_b   6.45355300
_cell_length_c   44.71152800
_cell_angle_alpha   90.00000000
_cell_angle_beta   90.00000000
_cell_angle_gamma   90.00000000
_symmetry_Int_Tables_number   1
_chemical_formula_structural   Mg3Tl
_chemical_formula_sum   'Mg30 Tl10'
_cell_volume   1500.18669981
_cell_formula_units_Z   10
loop_
 _symmetry_equiv_pos_site_id
 _symmetry_equiv_pos_as_xyz
  1  'x, y, z'
loop_
 _atom_site_type_symbol
 _atom_site_label
 _atom_site_symmetry_multiplicity
 _atom_site_fract_x
 _atom_site_fract_y
 _atom_site_fract_z
 _atom_site_occupancy
  Mg  Mg0  1  0.75000000  0.75000000  0.29127400  1
  Mg  Mg1  1  0.75000000  0.50235600  0.22936300  1
  Mg  Mg2  1  0.75000000  0.99764400  0.22936300  1
  Mg  Mg3  1  0.25000000  0.50235600  0.27063700  1
  Mg  Mg4  1  0.25000000  0.99764400  0.27063700  1
  Mg  Mg5  1  0.25000000  0.75000000  0.20872600  1
  Mg  Mg6  1  0.75000000  0.25000000  0.41627400  1
  Mg  Mg7  1  0.75000000  0.00235600  0.35436300  1
  Mg  Mg8  1  0.75000000  0.49764400  0.35436300  1
  Mg  Mg9  1  0.25000000  0.00235600  0.39563700  1
  Mg  Mg10  1  0.25000000  0.49764400  0.39563700  1
  Mg  Mg11  1  0.25000000  0.25000000  0.33372600  1
  Mg  Mg12  1  0.75000000  0.75000000  0.54127400  1
  Mg  Mg13  1  0.75000000  0.50235600  0.47936300  1
  Mg  Mg14  1  0.75000000  0.99764400  0.47936300  1
  Mg  Mg15  1  0.25000000  0.50235600  0.52063700  1
  Mg  Mg16  1  0.25000000  0.99764400  0.52063700  1
  Mg  Mg17  1  0.25000000  0.75000000  0.45872600  1
  Mg  Mg18  1  0.75000000  0.25000000  0.66627400  1
  Mg  Mg19  1  0.75000000  0.00235600  0.60436300  1
  Mg  Mg20  1  0.75000000  0.49764400  0.60436300  1
  Mg  Mg21  1  0.25000000  0.00235600  0.64563700  1
  Mg  Mg22  1  0.25000000  0.49764400  0.64563700  1
  Mg  Mg23  1  0.25000000  0.25000000  0.58372600  1
  Mg  Mg24  1  0.75000000  0.75000000  0.79127400  1
  Mg  Mg25  1  0.75000000  0.50235600  0.72936300  1
  Mg  Mg26  1  0.75000000  0.99764400  0.72936300  1
  Mg  Mg27  1  0.25000000  0.50235600  0.77063700  1
  Mg  Mg28  1  0.25000000  0.99764400  0.77063700  1
  Mg  Mg29  1  0.25000000  0.75000000  0.70872600  1
  Tl  Tl30  1  0.75000000  0.25000000  0.29166700  1
  Tl  Tl31  1  0.25000000  0.25000000  0.20833300  1
  Tl  Tl32  1  0.75000000  0.75000000  0.41666700  1
  Tl  Tl33  1  0.25000000  0.75000000  0.33333300  1
  Tl  Tl34  1  0.75000000  0.25000000  0.54166700  1
  Tl  Tl35  1  0.25000000  0.25000000  0.45833300  1
  Tl  Tl36  1  0.75000000  0.75000000  0.66666700  1
  Tl  Tl37  1  0.25000000  0.75000000  0.58333300  1
  Tl  Tl38  1  0.75000000  0.25000000  0.79166700  1
  Tl  Tl39  1  0.25000000  0.25000000  0.70833300  1
