# generated using pymatgen
data_Sm19Mg9
_symmetry_space_group_name_H-M   'P 1'
_cell_length_a   3.79076100
_cell_length_b   18.24769137
_cell_length_c   42.84868300
_cell_angle_alpha   96.05477005
_cell_angle_beta   90.00000000
_cell_angle_gamma   90.00000000
_symmetry_Int_Tables_number   1
_chemical_formula_structural   Sm19Mg9
_chemical_formula_sum   'Sm38 Mg18'
_cell_volume   2947.42201632
_cell_formula_units_Z   2
loop_
 _symmetry_equiv_pos_site_id
 _symmetry_equiv_pos_as_xyz
  1  'x, y, z'
loop_
 _atom_site_type_symbol
 _atom_site_label
 _atom_site_symmetry_multiplicity
 _atom_site_fract_x
 _atom_site_fract_y
 _atom_site_fract_z
 _atom_site_occupancy
  Sm  Sm0  1  1.00000000  0.00430700  0.28198300  1
  Sm  Sm1  1  0.50000000  0.84480500  0.30476900  1
  Sm  Sm2  1  0.50000000  0.66040700  0.25968300  1
  Sm  Sm3  1  0.00000000  0.81990900  0.23689700  1
  Sm  Sm4  1  0.00000000  0.28230500  0.24226900  1
  Sm  Sm5  1  0.50000000  0.38240900  0.29939700  1
  Sm  Sm6  1  1.00000000  0.12930700  0.40698300  1
  Sm  Sm7  1  0.50000000  0.96980500  0.42976900  1
  Sm  Sm8  1  0.50000000  0.78540700  0.38468300  1
  Sm  Sm9  1  1.00000000  0.94490900  0.36189700  1
  Sm  Sm10  1  0.50000000  0.56680700  0.34448300  1
  Sm  Sm11  1  0.00000000  0.40730500  0.36726900  1
  Sm  Sm12  1  1.00000000  0.22290700  0.32218300  1
  Sm  Sm13  1  0.50000000  0.50740900  0.42439700  1
  Sm  Sm14  1  1.00000000  0.25430700  0.53198300  1
  Sm  Sm15  1  0.50000000  0.09480500  0.55476900  1
  Sm  Sm16  1  0.50000000  0.91040700  0.50968300  1
  Sm  Sm17  1  1.00000000  0.06990900  0.48689700  1
  Sm  Sm18  1  0.50000000  0.69180700  0.46948300  1
  Sm  Sm19  1  1.00000000  0.53230500  0.49226900  1
  Sm  Sm20  1  1.00000000  0.34790700  0.44718300  1
  Sm  Sm21  1  0.50000000  0.63240900  0.54939700  1
  Sm  Sm22  1  1.00000000  0.37930700  0.65698300  1
  Sm  Sm23  1  0.50000000  0.21980500  0.67976900  1
  Sm  Sm24  1  0.50000000  0.03540700  0.63468300  1
  Sm  Sm25  1  0.00000000  0.19490900  0.61189700  1
  Sm  Sm26  1  0.50000000  0.81680700  0.59448300  1
  Sm  Sm27  1  0.00000000  0.65730500  0.61726900  1
  Sm  Sm28  1  0.00000000  0.47290700  0.57218300  1
  Sm  Sm29  1  0.50000000  0.75740900  0.67439700  1
  Sm  Sm30  1  1.00000000  0.50430700  0.78198300  1
  Sm  Sm31  1  0.50000000  0.34480500  0.80476900  1
  Sm  Sm32  1  0.50000000  0.16040700  0.75968300  1
  Sm  Sm33  1  0.00000000  0.31990900  0.73689700  1
  Sm  Sm34  1  0.50000000  0.94180700  0.71948300  1
  Sm  Sm35  1  0.00000000  0.78230500  0.74226900  1
  Sm  Sm36  1  1.00000000  0.59790700  0.69718300  1
  Sm  Sm37  1  0.50000000  0.88240900  0.79939700  1
  Mg  Mg38  1  0.50000000  0.14207200  0.26230300  1
  Mg  Mg39  1  1.00000000  0.52264200  0.27936400  1
  Mg  Mg40  1  1.00000000  0.70457200  0.32480300  1
  Mg  Mg41  1  0.50000000  0.08514200  0.34186400  1
  Mg  Mg42  1  0.50000000  0.26707200  0.38730300  1
  Mg  Mg43  1  1.00000000  0.64764200  0.40436400  1
  Mg  Mg44  1  1.00000000  0.82957200  0.44980300  1
  Mg  Mg45  1  0.50000000  0.21014200  0.46686400  1
  Mg  Mg46  1  0.50000000  0.39207200  0.51230300  1
  Mg  Mg47  1  0.00000000  0.77264200  0.52936400  1
  Mg  Mg48  1  1.00000000  0.95457200  0.57480300  1
  Mg  Mg49  1  0.50000000  0.33514200  0.59186400  1
  Mg  Mg50  1  0.50000000  0.51707200  0.63730300  1
  Mg  Mg51  1  0.00000000  0.89764200  0.65436400  1
  Mg  Mg52  1  0.00000000  0.07957200  0.69980300  1
  Mg  Mg53  1  0.50000000  0.46014200  0.71686400  1
  Mg  Mg54  1  0.50000000  0.64207200  0.76230300  1
  Mg  Mg55  1  1.00000000  0.02264200  0.77936400  1
