# generated using pymatgen
data_Mg12Zn61
_symmetry_space_group_name_H-M   'P 1'
_cell_length_a   4.98183571
_cell_length_b   9.87228479
_cell_length_c   49.62169200
_cell_angle_alpha   87.16066620
_cell_angle_beta   87.12264785
_cell_angle_gamma   75.38550100
_symmetry_Int_Tables_number   1
_chemical_formula_structural   Mg12Zn61
_chemical_formula_sum   'Mg12 Zn61'
_cell_volume   2356.84330036
_cell_formula_units_Z   1
loop_
 _symmetry_equiv_pos_site_id
 _symmetry_equiv_pos_as_xyz
  1  'x, y, z'
loop_
 _atom_site_type_symbol
 _atom_site_label
 _atom_site_symmetry_multiplicity
 _atom_site_fract_x
 _atom_site_fract_y
 _atom_site_fract_z
 _atom_site_occupancy
  Mg  Mg0  1  0.57223900  0.17129500  0.68422800  1
  Mg  Mg1  1  0.25731300  0.67654600  0.80882800  1
  Mg  Mg2  1  0.41081200  0.46448300  0.71389200  1
  Mg  Mg3  1  0.41873900  0.38335900  0.77916300  1
  Mg  Mg4  1  0.40557200  0.67129500  0.51756100  1
  Mg  Mg5  1  0.09064600  0.17654600  0.64216100  1
  Mg  Mg6  1  0.24414600  0.96448300  0.54722600  1
  Mg  Mg7  1  0.25207200  0.88335900  0.61249600  1
  Mg  Mg8  1  0.23890500  0.17129500  0.35089400  1
  Mg  Mg9  1  0.92398000  0.67654600  0.47549500  1
  Mg  Mg10  1  0.07747900  0.46448300  0.38055900  1
  Mg  Mg11  1  0.08540600  0.38335900  0.44583000  1
  Zn  Zn12  1  0.49810900  0.17392100  0.82986100  1
  Zn  Zn13  1  0.82933700  0.64698400  0.69434200  1
  Zn  Zn14  1  0.68265900  0.91039200  0.72429000  1
  Zn  Zn15  1  0.83490100  0.53632400  0.79387400  1
  Zn  Zn16  1  0.99465100  0.31151700  0.69918200  1
  Zn  Zn17  1  0.78620800  0.17986900  0.74241500  1
  Zn  Zn18  1  0.87102400  0.93758500  0.82607900  1
  Zn  Zn19  1  0.00021500  0.20085700  0.79871300  1
  Zn  Zn20  1  0.12682500  0.04007500  0.70627400  1
  Zn  Zn21  1  0.46423900  0.91025700  0.66697600  1
  Zn  Zn22  1  0.36531200  0.93758500  0.82607900  1
  Zn  Zn23  1  0.95852800  0.91025700  0.66697600  1
  Zn  Zn24  1  0.53804200  0.66797300  0.75064100  1
  Zn  Zn25  1  0.14689200  0.93745000  0.76876600  1
  Zn  Zn26  1  0.29150900  0.17986900  0.74241500  1
  Zn  Zn27  1  0.04334400  0.66797300  0.75064100  1
  Zn  Zn28  1  0.91477600  0.42392100  0.74652800  1
  Zn  Zn29  1  0.57117000  0.07434600  0.78331400  1
  Zn  Zn30  1  0.25838100  0.77349600  0.70974200  1
  Zn  Zn31  1  0.70272600  0.80776600  0.78678200  1
  Zn  Zn32  1  0.33144200  0.67392100  0.66319400  1
  Zn  Zn33  1  0.66267000  0.14698400  0.52767600  1
  Zn  Zn34  1  0.51599300  0.41039200  0.55762300  1
  Zn  Zn35  1  0.66823400  0.03632400  0.62720700  1
  Zn  Zn36  1  0.82798400  0.81151700  0.53251500  1
  Zn  Zn37  1  0.61954100  0.67986900  0.57574800  1
  Zn  Zn38  1  0.70435700  0.43758500  0.65941300  1
  Zn  Zn39  1  0.83354800  0.70085700  0.63204600  1
  Zn  Zn40  1  0.96015900  0.54007500  0.53960700  1
  Zn  Zn41  1  0.29757300  0.41025700  0.50031000  1
  Zn  Zn42  1  0.19864600  0.43758500  0.65941300  1
  Zn  Zn43  1  0.79186100  0.41025700  0.50031000  1
  Zn  Zn44  1  0.37137600  0.16797300  0.58397400  1
  Zn  Zn45  1  0.98022500  0.43745000  0.60209900  1
  Zn  Zn46  1  0.12484200  0.67986900  0.57574800  1
  Zn  Zn47  1  0.87667700  0.16797300  0.58397400  1
  Zn  Zn48  1  0.74810900  0.92392100  0.57986100  1
  Zn  Zn49  1  0.40450400  0.57434600  0.61664700  1
  Zn  Zn50  1  0.09171400  0.27349600  0.54307500  1
  Zn  Zn51  1  0.53605900  0.30776600  0.62011500  1
  Zn  Zn52  1  0.16477600  0.17392100  0.49652800  1
  Zn  Zn53  1  0.49600300  0.64698400  0.36100900  1
  Zn  Zn54  1  0.34932600  0.91039200  0.39095600  1
  Zn  Zn55  1  0.50156700  0.53632400  0.46054100  1
  Zn  Zn56  1  0.66131700  0.31151700  0.36584800  1
  Zn  Zn57  1  0.45287400  0.17986900  0.40908100  1
  Zn  Zn58  1  0.53769000  0.93758500  0.49274600  1
  Zn  Zn59  1  0.66688100  0.20085700  0.46538000  1
  Zn  Zn60  1  0.79349200  0.04007500  0.37294000  1
  Zn  Zn61  1  0.13090600  0.91025700  0.33364300  1
  Zn  Zn62  1  0.03197900  0.93758500  0.49274600  1
  Zn  Zn63  1  0.62519400  0.91025700  0.33364300  1
  Zn  Zn64  1  0.20470900  0.66797300  0.41730800  1
  Zn  Zn65  1  0.81355900  0.93745000  0.43543300  1
  Zn  Zn66  1  0.95817600  0.17986900  0.40908100  1
  Zn  Zn67  1  0.71001000  0.66797300  0.41730800  1
  Zn  Zn68  1  0.58144200  0.42392100  0.41319400  1
  Zn  Zn69  1  0.23783700  0.07434600  0.44998000  1
  Zn  Zn70  1  0.92504800  0.77349600  0.37640900  1
  Zn  Zn71  1  0.36939300  0.80776600  0.45344800  1
  Zn  Zn72  1  0.99810900  0.67392100  0.32986100  1
