# generated using pymatgen
data_Mg38Zn61
_symmetry_space_group_name_H-M   'P 1'
_cell_length_a   5.07402260
_cell_length_b   13.26606241
_cell_length_c   57.00757700
_cell_angle_alpha   92.18610401
_cell_angle_beta   87.66012493
_cell_angle_gamma   100.62858194
_symmetry_Int_Tables_number   1
_chemical_formula_structural   Mg38Zn61
_chemical_formula_sum   'Mg38 Zn61'
_cell_volume   3766.49990850
_cell_formula_units_Z   1
loop_
 _symmetry_equiv_pos_site_id
 _symmetry_equiv_pos_as_xyz
  1  'x, y, z'
loop_
 _atom_site_type_symbol
 _atom_site_label
 _atom_site_symmetry_multiplicity
 _atom_site_fract_x
 _atom_site_fract_y
 _atom_site_fract_z
 _atom_site_occupancy
  Mg  Mg0  1  0.25471500  0.62791900  0.37495500  1
  Mg  Mg1  1  0.46421500  0.99474600  0.32835600  1
  Mg  Mg2  1  0.56613900  0.37556800  0.48807900  1
  Mg  Mg3  1  0.80460800  0.74863700  0.38910500  1
  Mg  Mg4  1  0.93724600  0.92264900  0.30053900  1
  Mg  Mg5  1  0.13012500  0.41860600  0.40701300  1
  Mg  Mg6  1  0.90312800  0.95910000  0.41089500  1
  Mg  Mg7  1  0.25732400  0.57818600  0.31904600  1
  Mg  Mg8  1  0.77049100  0.78508800  0.49946100  1
  Mg  Mg9  1  0.14159800  0.33216800  0.31192100  1
  Mg  Mg10  1  0.45041200  0.12955100  0.48095400  1
  Mg  Mg11  1  0.38584600  0.89124900  0.37622800  1
  Mg  Mg12  1  0.13217700  0.47267200  0.46279300  1
  Mg  Mg13  1  0.57556000  0.23506400  0.33720700  1
  Mg  Mg14  1  0.45302200  0.07981800  0.42504500  1
  Mg  Mg15  1  0.57761100  0.28913000  0.39298700  1
  Mg  Mg16  1  0.24352200  0.71299000  0.47164400  1
  Mg  Mg17  1  0.32189100  0.81648700  0.42377200  1
  Mg  Mg18  1  0.00471500  0.37791900  0.62495500  1
  Mg  Mg19  1  0.21421500  0.74474600  0.57835600  1
  Mg  Mg20  1  0.31613900  0.12556800  0.73807900  1
  Mg  Mg21  1  0.55460800  0.49863700  0.63910500  1
  Mg  Mg22  1  0.68724600  0.67264900  0.55053900  1
  Mg  Mg23  1  0.88012500  0.16860600  0.65701300  1
  Mg  Mg24  1  0.57063400  0.42826700  0.54413600  1
  Mg  Mg25  1  0.65312800  0.70910000  0.66089500  1
  Mg  Mg26  1  0.00732400  0.32818600  0.56904600  1
  Mg  Mg27  1  0.52049100  0.53508800  0.74946100  1
  Mg  Mg28  1  0.89159800  0.08216800  0.56192100  1
  Mg  Mg29  1  0.20041200  0.87955100  0.73095400  1
  Mg  Mg30  1  0.13584600  0.64124900  0.62622800  1
  Mg  Mg31  1  0.88217700  0.22267200  0.71279300  1
  Mg  Mg32  1  0.32556000  0.98506400  0.58720700  1
  Mg  Mg33  1  0.88710200  0.02946900  0.50586400  1
  Mg  Mg34  1  0.20302200  0.82981800  0.67504500  1
  Mg  Mg35  1  0.32761100  0.03913000  0.64298700  1
  Mg  Mg36  1  0.99352200  0.46299000  0.72164400  1
  Mg  Mg37  1  0.07189100  0.56648700  0.67377200  1
  Zn  Zn38  1  0.38450000  0.80500100  0.29807200  1
  Zn  Zn39  1  0.91813000  0.93527900  0.35434700  1
  Zn  Zn40  1  0.69143700  0.45174400  0.31571300  1
  Zn  Zn41  1  0.11476400  0.93652200  0.46207800  1
  Zn  Zn42  1  0.09888400  0.77561200  0.33761700  1
  Zn  Zn43  1  0.32323700  0.90273500  0.50192800  1
  Zn  Zn44  1  0.07481900  0.26310900  0.36572700  1
  Zn  Zn45  1  0.91659500  0.42862300  0.35611900  1
  Zn  Zn46  1  0.69335100  0.52188200  0.39079900  1
  Zn  Zn47  1  0.68586300  0.59578100  0.46690600  1
  Zn  Zn48  1  0.78960700  0.77245800  0.44565300  1
  Zn  Zn49  1  0.63291700  0.44462700  0.43427300  1
  Zn  Zn50  1  0.46394900  0.61725100  0.42491400  1
  Zn  Zn51  1  0.60885300  0.93212500  0.46238300  1
  Zn  Zn52  1  0.24378700  0.09048600  0.37508600  1
  Zn  Zn53  1  0.76184700  0.60485900  0.34613400  1
  Zn  Zn54  1  0.41164800  0.42698600  0.35625100  1
  Zn  Zn55  1  0.97912400  0.62034600  0.42446000  1
  Zn  Zn56  1  0.94589000  0.10287800  0.45386600  1
  Zn  Zn57  1  0.72861200  0.08739000  0.37554000  1
  Zn  Zn58  1  0.02187300  0.11195500  0.33309400  1
  Zn  Zn59  1  0.29608800  0.28075000  0.44374900  1
  Zn  Zn60  1  0.59297300  0.77121400  0.33792200  1
  Zn  Zn61  1  0.79114200  0.27911400  0.44388100  1
  Zn  Zn62  1  0.01438600  0.18585500  0.40920100  1
  Zn  Zn63  1  0.01630000  0.25599300  0.48428700  1
  Zn  Zn64  1  0.13450000  0.55500100  0.54807200  1
  Zn  Zn65  1  0.66813000  0.68527900  0.60434700  1
  Zn  Zn66  1  0.44143700  0.20174400  0.56571300  1
  Zn  Zn67  1  0.86476400  0.68652200  0.71207800  1
  Zn  Zn68  1  0.55380300  0.88824200  0.54419100  1
  Zn  Zn69  1  0.84888400  0.52561200  0.58761700  1
  Zn  Zn70  1  0.72886800  0.22886800  0.52500000  1
  Zn  Zn71  1  0.07323700  0.65273500  0.75192800  1
  Zn  Zn72  1  0.82481900  0.01310900  0.61572700  1
  Zn  Zn73  1  0.41018400  0.56914500  0.50578100  1
  Zn  Zn74  1  0.66659500  0.17862300  0.60611900  1
  Zn  Zn75  1  0.44335100  0.27188200  0.64079900  1
  Zn  Zn76  1  0.06832400  0.40021000  0.51660000  1
  Zn  Zn77  1  0.43586300  0.34578100  0.71690600  1
  Zn  Zn78  1  0.53960700  0.52245800  0.69565300  1
  Zn  Zn79  1  0.38291700  0.19462700  0.68427300  1
  Zn  Zn80  1  0.21394900  0.36725100  0.67491400  1
  Zn  Zn81  1  0.04755300  0.88859100  0.54421900  1
  Zn  Zn82  1  0.35885300  0.68212500  0.71238300  1
  Zn  Zn83  1  0.38941300  0.05752600  0.53340000  1
  Zn  Zn84  1  0.99378700  0.84048600  0.62508600  1
  Zn  Zn85  1  0.90393400  0.56949400  0.50580900  1
  Zn  Zn86  1  0.22886800  0.22886800  0.52500000  1
  Zn  Zn87  1  0.51184700  0.35485900  0.59613400  1
  Zn  Zn88  1  0.16164800  0.17698600  0.60625100  1
  Zn  Zn89  1  0.72912400  0.37034600  0.67446000  1
  Zn  Zn90  1  0.69589000  0.85287800  0.70386600  1
  Zn  Zn91  1  0.47861200  0.83739000  0.62554000  1
  Zn  Zn92  1  0.77187300  0.86195500  0.58309400  1
  Zn  Zn93  1  0.04608800  0.03075000  0.69374900  1
  Zn  Zn94  1  0.34297300  0.52121400  0.58792200  1
  Zn  Zn95  1  0.22886800  0.72886800  0.52500000  1
  Zn  Zn96  1  0.54114200  0.02911400  0.69388100  1
  Zn  Zn97  1  0.76438600  0.93585500  0.65920100  1
  Zn  Zn98  1  0.76630000  0.00599300  0.73428700  1
