# generated using pymatgen
data_Mg19Bi12
_symmetry_space_group_name_H-M   'P 1'
_cell_length_a   4.73063000
_cell_length_b   8.82222111
_cell_length_c   43.17621000
_cell_angle_alpha   86.85535067
_cell_angle_beta   86.85960654
_cell_angle_gamma   74.44823906
_symmetry_Int_Tables_number   1
_chemical_formula_structural   Mg19Bi12
_chemical_formula_sum   'Mg19 Bi12'
_cell_volume   1731.85409421
_cell_formula_units_Z   1
loop_
 _symmetry_equiv_pos_site_id
 _symmetry_equiv_pos_as_xyz
  1  'x, y, z'
loop_
 _atom_site_type_symbol
 _atom_site_label
 _atom_site_symmetry_multiplicity
 _atom_site_fract_x
 _atom_site_fract_y
 _atom_site_fract_z
 _atom_site_occupancy
  Mg  Mg0  1  0.59145300  0.75487200  0.28333300  1
  Mg  Mg1  1  0.85769100  0.14230900  0.36341900  1
  Mg  Mg2  1  0.17478600  0.50487200  0.36666700  1
  Mg  Mg3  1  0.90854700  0.11743400  0.28658100  1
  Mg  Mg4  1  0.44102500  0.89230900  0.44675200  1
  Mg  Mg5  1  0.75811900  0.25487200  0.45000000  1
  Mg  Mg6  1  0.49188100  0.86743400  0.36991400  1
  Mg  Mg7  1  0.02435800  0.64230900  0.53008600  1
  Mg  Mg8  1  0.34145300  0.00487200  0.53333300  1
  Mg  Mg9  1  0.07521400  0.61743400  0.45324800  1
  Mg  Mg10  1  0.60769100  0.39230900  0.61341900  1
  Mg  Mg11  1  0.92478600  0.75487200  0.61666700  1
  Mg  Mg12  1  0.65854700  0.36743400  0.53658100  1
  Mg  Mg13  1  0.19102500  0.14230900  0.69675200  1
  Mg  Mg14  1  0.50811900  0.50487200  0.70000000  1
  Mg  Mg15  1  0.24188100  0.11743400  0.61991400  1
  Mg  Mg16  1  0.77435800  0.89230900  0.78008600  1
  Mg  Mg17  1  0.09145300  0.25487200  0.78333300  1
  Mg  Mg18  1  0.82521400  0.86743400  0.70324800  1
  Bi  Bi19  1  0.02755100  0.83656100  0.32944700  1
  Bi  Bi20  1  0.73868800  0.42318200  0.32055300  1
  Bi  Bi21  1  0.61088400  0.58656100  0.41278000  1
  Bi  Bi22  1  0.32202100  0.17318200  0.40388600  1
  Bi  Bi23  1  0.19421800  0.33656100  0.49611400  1
  Bi  Bi24  1  0.90535400  0.92318200  0.48722000  1
  Bi  Bi25  1  0.77755100  0.08656100  0.57944700  1
  Bi  Bi26  1  0.48868800  0.67318200  0.57055300  1
  Bi  Bi27  1  0.36088400  0.83656100  0.66278000  1
  Bi  Bi28  1  0.07202100  0.42318200  0.65388600  1
  Bi  Bi29  1  0.94421800  0.58656100  0.74611400  1
  Bi  Bi30  1  0.65535400  0.17318200  0.73722000  1
