# generated using pymatgen
data_MgZr2
_symmetry_space_group_name_H-M   'P 1'
_cell_length_a   3.23467038
_cell_length_b   23.42868800
_cell_length_c   42.05072000
_cell_angle_alpha   90.00000000
_cell_angle_beta   87.79577957
_cell_angle_gamma   90.00000000
_symmetry_Int_Tables_number   1
_chemical_formula_structural   MgZr2
_chemical_formula_sum   'Mg27 Zr54'
_cell_volume   3184.41731786
_cell_formula_units_Z   27
loop_
 _symmetry_equiv_pos_site_id
 _symmetry_equiv_pos_as_xyz
  1  'x, y, z'
loop_
 _atom_site_type_symbol
 _atom_site_label
 _atom_site_symmetry_multiplicity
 _atom_site_fract_x
 _atom_site_fract_y
 _atom_site_fract_z
 _atom_site_occupancy
  Mg  Mg0  1  0.55555600  0.00000000  0.25555600  1
  Mg  Mg1  1  0.06666700  0.33333300  0.23333300  1
  Mg  Mg2  1  0.57777800  0.66666700  0.21111100  1
  Mg  Mg3  1  0.02222200  0.00000000  0.32222200  1
  Mg  Mg4  1  0.53333300  0.33333300  0.30000000  1
  Mg  Mg5  1  0.04444400  0.66666700  0.27777800  1
  Mg  Mg6  1  0.48888900  0.00000000  0.38888900  1
  Mg  Mg7  1  0.00000000  0.33333300  0.36666700  1
  Mg  Mg8  1  0.51111100  0.66666700  0.34444400  1
  Mg  Mg9  1  0.95555600  0.00000000  0.45555600  1
  Mg  Mg10  1  0.46666700  0.33333300  0.43333300  1
  Mg  Mg11  1  0.97777800  0.66666700  0.41111100  1
  Mg  Mg12  1  0.42222200  0.00000000  0.52222200  1
  Mg  Mg13  1  0.93333300  0.33333300  0.50000000  1
  Mg  Mg14  1  0.44444400  0.66666700  0.47777800  1
  Mg  Mg15  1  0.88888900  0.00000000  0.58888900  1
  Mg  Mg16  1  0.40000000  0.33333300  0.56666700  1
  Mg  Mg17  1  0.91111100  0.66666700  0.54444400  1
  Mg  Mg18  1  0.35555600  0.00000000  0.65555600  1
  Mg  Mg19  1  0.86666700  0.33333300  0.63333300  1
  Mg  Mg20  1  0.37777800  0.66666700  0.61111100  1
  Mg  Mg21  1  0.82222200  0.00000000  0.72222200  1
  Mg  Mg22  1  0.33333300  0.33333300  0.70000000  1
  Mg  Mg23  1  0.84444400  0.66666700  0.67777800  1
  Mg  Mg24  1  0.28888900  0.00000000  0.78888900  1
  Mg  Mg25  1  0.80000000  0.33333300  0.76666700  1
  Mg  Mg26  1  0.31111100  0.66666700  0.74444400  1
  Zr  Zr27  1  0.57777800  0.88597600  0.21111100  1
  Zr  Zr28  1  0.55555600  0.78069100  0.25555600  1
  Zr  Zr29  1  0.55555600  0.21930900  0.25555600  1
  Zr  Zr30  1  0.06666700  0.11402400  0.23333300  1
  Zr  Zr31  1  0.06666700  0.55264200  0.23333300  1
  Zr  Zr32  1  0.57777800  0.44735800  0.21111100  1
  Zr  Zr33  1  0.04444400  0.88597600  0.27777800  1
  Zr  Zr34  1  0.02222200  0.78069100  0.32222200  1
  Zr  Zr35  1  0.02222200  0.21930900  0.32222200  1
  Zr  Zr36  1  0.53333300  0.11402400  0.30000000  1
  Zr  Zr37  1  0.53333300  0.55264200  0.30000000  1
  Zr  Zr38  1  0.04444400  0.44735800  0.27777800  1
  Zr  Zr39  1  0.51111100  0.88597600  0.34444400  1
  Zr  Zr40  1  0.48888900  0.78069100  0.38888900  1
  Zr  Zr41  1  0.48888900  0.21930900  0.38888900  1
  Zr  Zr42  1  0.00000000  0.11402400  0.36666700  1
  Zr  Zr43  1  0.00000000  0.55264200  0.36666700  1
  Zr  Zr44  1  0.51111100  0.44735800  0.34444400  1
  Zr  Zr45  1  0.97777800  0.88597600  0.41111100  1
  Zr  Zr46  1  0.95555600  0.78069100  0.45555600  1
  Zr  Zr47  1  0.95555600  0.21930900  0.45555600  1
  Zr  Zr48  1  0.46666700  0.11402400  0.43333300  1
  Zr  Zr49  1  0.46666700  0.55264200  0.43333300  1
  Zr  Zr50  1  0.97777800  0.44735800  0.41111100  1
  Zr  Zr51  1  0.44444400  0.88597600  0.47777800  1
  Zr  Zr52  1  0.42222200  0.78069100  0.52222200  1
  Zr  Zr53  1  0.42222200  0.21930900  0.52222200  1
  Zr  Zr54  1  0.93333300  0.11402400  0.50000000  1
  Zr  Zr55  1  0.93333300  0.55264200  0.50000000  1
  Zr  Zr56  1  0.44444400  0.44735800  0.47777800  1
  Zr  Zr57  1  0.91111100  0.88597600  0.54444400  1
  Zr  Zr58  1  0.88888900  0.78069100  0.58888900  1
  Zr  Zr59  1  0.88888900  0.21930900  0.58888900  1
  Zr  Zr60  1  0.40000000  0.11402400  0.56666700  1
  Zr  Zr61  1  0.40000000  0.55264200  0.56666700  1
  Zr  Zr62  1  0.91111100  0.44735800  0.54444400  1
  Zr  Zr63  1  0.37777800  0.88597600  0.61111100  1
  Zr  Zr64  1  0.35555600  0.78069100  0.65555600  1
  Zr  Zr65  1  0.35555600  0.21930900  0.65555600  1
  Zr  Zr66  1  0.86666700  0.11402400  0.63333300  1
  Zr  Zr67  1  0.86666700  0.55264200  0.63333300  1
  Zr  Zr68  1  0.37777800  0.44735800  0.61111100  1
  Zr  Zr69  1  0.84444400  0.88597600  0.67777800  1
  Zr  Zr70  1  0.82222200  0.78069100  0.72222200  1
  Zr  Zr71  1  0.82222200  0.21930900  0.72222200  1
  Zr  Zr72  1  0.33333300  0.11402400  0.70000000  1
  Zr  Zr73  1  0.33333300  0.55264200  0.70000000  1
  Zr  Zr74  1  0.84444400  0.44735800  0.67777800  1
  Zr  Zr75  1  0.31111100  0.88597600  0.74444400  1
  Zr  Zr76  1  0.28888900  0.78069100  0.78888900  1
  Zr  Zr77  1  0.28888900  0.21930900  0.78888900  1
  Zr  Zr78  1  0.80000000  0.11402400  0.76666700  1
  Zr  Zr79  1  0.80000000  0.55264200  0.76666700  1
  Zr  Zr80  1  0.31111100  0.44735800  0.74444400  1
