# generated using pymatgen
data_CeMg
_symmetry_space_group_name_H-M   'P 1'
_cell_length_a   6.79006760
_cell_length_b   11.03042945
_cell_length_c   44.10757600
_cell_angle_alpha   88.99901572
_cell_angle_beta   93.93159522
_cell_angle_gamma   72.24522392
_symmetry_Int_Tables_number   1
_chemical_formula_structural   CeMg
_chemical_formula_sum   'Ce36 Mg36'
_cell_volume   3136.22887646
_cell_formula_units_Z   36
loop_
 _symmetry_equiv_pos_site_id
 _symmetry_equiv_pos_as_xyz
  1  'x, y, z'
loop_
 _atom_site_type_symbol
 _atom_site_label
 _atom_site_symmetry_multiplicity
 _atom_site_fract_x
 _atom_site_fract_y
 _atom_site_fract_z
 _atom_site_occupancy
  Ce  Ce0  1  0.04426800  0.30084400  0.25410100  1
  Ce  Ce1  1  0.25573200  0.13248900  0.21256600  1
  Ce  Ce2  1  0.64426800  0.83417800  0.22076800  1
  Ce  Ce3  1  0.65573200  0.59915600  0.24589900  1
  Ce  Ce4  1  0.84426800  0.23417800  0.32076800  1
  Ce  Ce5  1  0.05573200  0.06582200  0.27923200  1
  Ce  Ce6  1  0.44426800  0.76751100  0.28743400  1
  Ce  Ce7  1  0.45573200  0.53248900  0.31256600  1
  Ce  Ce8  1  0.64426800  0.16751100  0.38743400  1
  Ce  Ce9  1  0.85573200  0.99915600  0.34589900  1
  Ce  Ce10  1  0.24426800  0.70084400  0.35410100  1
  Ce  Ce11  1  0.25573200  0.46582200  0.37923200  1
  Ce  Ce12  1  0.44426800  0.10084400  0.45410100  1
  Ce  Ce13  1  0.65573200  0.93248900  0.41256600  1
  Ce  Ce14  1  0.04426800  0.63417800  0.42076800  1
  Ce  Ce15  1  0.05573200  0.39915600  0.44589900  1
  Ce  Ce16  1  0.24426800  0.03417800  0.52076800  1
  Ce  Ce17  1  0.45573200  0.86582200  0.47923200  1
  Ce  Ce18  1  0.84426800  0.56751100  0.48743400  1
  Ce  Ce19  1  0.85573200  0.33248900  0.51256600  1
  Ce  Ce20  1  0.04426800  0.96751100  0.58743400  1
  Ce  Ce21  1  0.25573200  0.79915600  0.54589900  1
  Ce  Ce22  1  0.64426800  0.50084400  0.55410100  1
  Ce  Ce23  1  0.65573200  0.26582200  0.57923200  1
  Ce  Ce24  1  0.84426800  0.90084400  0.65410100  1
  Ce  Ce25  1  0.05573200  0.73248900  0.61256600  1
  Ce  Ce26  1  0.44426800  0.43417800  0.62076800  1
  Ce  Ce27  1  0.45573200  0.19915600  0.64589900  1
  Ce  Ce28  1  0.64426800  0.83417800  0.72076800  1
  Ce  Ce29  1  0.85573200  0.66582200  0.67923200  1
  Ce  Ce30  1  0.24426800  0.36751100  0.68743400  1
  Ce  Ce31  1  0.25573200  0.13248900  0.71256600  1
  Ce  Ce32  1  0.44426800  0.76751100  0.78743400  1
  Ce  Ce33  1  0.65573200  0.59915600  0.74589900  1
  Ce  Ce34  1  0.04426800  0.30084400  0.75410100  1
  Ce  Ce35  1  0.05573200  0.06582200  0.77923200  1
  Mg  Mg36  1  0.76273600  0.11667600  0.21176500  1
  Mg  Mg37  1  0.53726400  0.31665800  0.25490200  1
  Mg  Mg38  1  0.16273600  0.58334200  0.24509800  1
  Mg  Mg39  1  0.13726400  0.84999100  0.22156900  1
  Mg  Mg40  1  0.56273600  0.05000900  0.27843100  1
  Mg  Mg41  1  0.33726400  0.24999100  0.32156900  1
  Mg  Mg42  1  0.96273600  0.51667600  0.31176500  1
  Mg  Mg43  1  0.93726400  0.78332400  0.28823500  1
  Mg  Mg44  1  0.36273600  0.98334200  0.34509800  1
  Mg  Mg45  1  0.13726400  0.18332400  0.38823500  1
  Mg  Mg46  1  0.76273600  0.45000900  0.37843100  1
  Mg  Mg47  1  0.73726400  0.71665800  0.35490200  1
  Mg  Mg48  1  0.16273600  0.91667600  0.41176500  1
  Mg  Mg49  1  0.93726400  0.11665800  0.45490200  1
  Mg  Mg50  1  0.56273600  0.38334200  0.44509800  1
  Mg  Mg51  1  0.53726400  0.64999100  0.42156900  1
  Mg  Mg52  1  0.96273600  0.85000900  0.47843100  1
  Mg  Mg53  1  0.73726400  0.04999100  0.52156900  1
  Mg  Mg54  1  0.36273600  0.31667600  0.51176500  1
  Mg  Mg55  1  0.33726400  0.58332400  0.48823500  1
  Mg  Mg56  1  0.76273600  0.78334200  0.54509800  1
  Mg  Mg57  1  0.53726400  0.98332400  0.58823500  1
  Mg  Mg58  1  0.16273600  0.25000900  0.57843100  1
  Mg  Mg59  1  0.13726400  0.51665800  0.55490200  1
  Mg  Mg60  1  0.56273600  0.71667600  0.61176500  1
  Mg  Mg61  1  0.33726400  0.91665800  0.65490200  1
  Mg  Mg62  1  0.96273600  0.18334200  0.64509800  1
  Mg  Mg63  1  0.93726400  0.44999100  0.62156900  1
  Mg  Mg64  1  0.36273600  0.65000900  0.67843100  1
  Mg  Mg65  1  0.13726400  0.84999100  0.72156900  1
  Mg  Mg66  1  0.76273600  0.11667600  0.71176500  1
  Mg  Mg67  1  0.73726400  0.38332400  0.68823500  1
  Mg  Mg68  1  0.16273600  0.58334200  0.74509800  1
  Mg  Mg69  1  0.93726400  0.78332400  0.78823500  1
  Mg  Mg70  1  0.56273600  0.05000900  0.77843100  1
  Mg  Mg71  1  0.53726400  0.31665800  0.75490200  1
