# generated using pymatgen
data_Mg95Pd36
_symmetry_space_group_name_H-M   'P 1'
_cell_length_a   8.83883700
_cell_length_b   11.93708038
_cell_length_c   44.35540600
_cell_angle_alpha   87.49946255
_cell_angle_beta   90.00000000
_cell_angle_gamma   68.27044156
_symmetry_Int_Tables_number   1
_chemical_formula_structural   Mg95Pd36
_chemical_formula_sum   'Mg95 Pd36'
_cell_volume   4342.58916709
_cell_formula_units_Z   1
loop_
 _symmetry_equiv_pos_site_id
 _symmetry_equiv_pos_as_xyz
  1  'x, y, z'
loop_
 _atom_site_type_symbol
 _atom_site_label
 _atom_site_symmetry_multiplicity
 _atom_site_fract_x
 _atom_site_fract_y
 _atom_site_fract_z
 _atom_site_occupancy
  Mg  Mg0  1  0.51738000  0.39059100  0.23807100  1
  Mg  Mg1  1  0.94836700  0.10326600  0.30990300  1
  Mg  Mg2  1  0.09202900  0.39059100  0.23807100  1
  Mg  Mg3  1  0.15550800  0.26363400  0.30210700  1
  Mg  Mg4  1  0.72452000  0.55095900  0.23027600  1
  Mg  Mg5  1  0.58085800  0.26363400  0.30210700  1
  Mg  Mg6  1  0.63181700  0.73636600  0.27662800  1
  Mg  Mg7  1  0.04107000  0.91786000  0.26355100  1
  Mg  Mg8  1  0.70572200  0.97160400  0.29646600  1
  Mg  Mg9  1  0.41843600  0.16312900  0.24858500  1
  Mg  Mg10  1  0.32267400  0.97160400  0.29646600  1
  Mg  Mg11  1  0.96716600  0.68262100  0.24371200  1
  Mg  Mg12  1  0.25445200  0.49109600  0.29159300  1
  Mg  Mg13  1  0.35021400  0.68262100  0.24371200  1
  Mg  Mg14  1  0.83644400  0.32711300  0.27008900  1
  Mg  Mg15  1  0.26738000  0.89059100  0.36307100  1
  Mg  Mg16  1  0.69836700  0.60326600  0.43490300  1
  Mg  Mg17  1  0.84202900  0.89059100  0.36307100  1
  Mg  Mg18  1  0.90550800  0.76363400  0.42710700  1
  Mg  Mg19  1  0.47452000  0.05095900  0.35527600  1
  Mg  Mg20  1  0.33085800  0.76363400  0.42710700  1
  Mg  Mg21  1  0.06280400  0.44904100  0.34845900  1
  Mg  Mg22  1  0.38181700  0.23636600  0.40162800  1
  Mg  Mg23  1  0.48815500  0.44904100  0.34845900  1
  Mg  Mg24  1  0.36008300  0.70518400  0.31672000  1
  Mg  Mg25  1  0.79107000  0.41786000  0.38855100  1
  Mg  Mg26  1  0.93473300  0.70518400  0.31672000  1
  Mg  Mg27  1  0.45572200  0.47160400  0.42146600  1
  Mg  Mg28  1  0.16843600  0.66312900  0.37358500  1
  Mg  Mg29  1  0.07267400  0.47160400  0.42146600  1
  Mg  Mg30  1  0.71716600  0.18262100  0.36871200  1
  Mg  Mg31  1  0.00445200  0.99109600  0.41659300  1
  Mg  Mg32  1  0.10021400  0.18262100  0.36871200  1
  Mg  Mg33  1  0.58644400  0.82711300  0.39508900  1
  Mg  Mg34  1  0.71144400  0.57711300  0.33258900  1
  Mg  Mg35  1  0.01738000  0.39059100  0.48807100  1
  Mg  Mg36  1  0.44836700  0.10326600  0.55990300  1
  Mg  Mg37  1  0.59202900  0.39059100  0.48807100  1
  Mg  Mg38  1  0.65550800  0.26363400  0.55210700  1
  Mg  Mg39  1  0.22452000  0.55095900  0.48027600  1
  Mg  Mg40  1  0.08085800  0.26363400  0.55210700  1
  Mg  Mg41  1  0.81280400  0.94904100  0.47345900  1
  Mg  Mg42  1  0.13181700  0.73636600  0.52662800  1
  Mg  Mg43  1  0.23815500  0.94904100  0.47345900  1
  Mg  Mg44  1  0.11008300  0.20518400  0.44172000  1
  Mg  Mg45  1  0.54107000  0.91786000  0.51355100  1
  Mg  Mg46  1  0.68473300  0.20518400  0.44172000  1
  Mg  Mg47  1  0.20572200  0.97160400  0.54646600  1
  Mg  Mg48  1  0.91843600  0.16312900  0.49858500  1
  Mg  Mg49  1  0.82267400  0.97160400  0.54646600  1
  Mg  Mg50  1  0.46716600  0.68262100  0.49371200  1
  Mg  Mg51  1  0.75445200  0.49109600  0.54159300  1
  Mg  Mg52  1  0.85021400  0.68262100  0.49371200  1
  Mg  Mg53  1  0.33644400  0.32711300  0.52008900  1
  Mg  Mg54  1  0.46144400  0.07711300  0.45758900  1
  Mg  Mg55  1  0.76738000  0.89059100  0.61307100  1
  Mg  Mg56  1  0.19836700  0.60326600  0.68490300  1
  Mg  Mg57  1  0.34202900  0.89059100  0.61307100  1
  Mg  Mg58  1  0.40550800  0.76363400  0.67710700  1
  Mg  Mg59  1  0.97452000  0.05095900  0.60527600  1
  Mg  Mg60  1  0.83085800  0.76363400  0.67710700  1
  Mg  Mg61  1  0.56280400  0.44904100  0.59845900  1
  Mg  Mg62  1  0.88181700  0.23636600  0.65162800  1
  Mg  Mg63  1  0.98815500  0.44904100  0.59845900  1
  Mg  Mg64  1  0.86008300  0.70518400  0.56672000  1
  Mg  Mg65  1  0.29107000  0.41786000  0.63855100  1
  Mg  Mg66  1  0.43473300  0.70518400  0.56672000  1
  Mg  Mg67  1  0.95572200  0.47160400  0.67146600  1
  Mg  Mg68  1  0.66843600  0.66312900  0.62358500  1
  Mg  Mg69  1  0.57267400  0.47160400  0.67146600  1
  Mg  Mg70  1  0.21716600  0.18262100  0.61871200  1
  Mg  Mg71  1  0.50445200  0.99109600  0.66659300  1
  Mg  Mg72  1  0.60021400  0.18262100  0.61871200  1
  Mg  Mg73  1  0.08644400  0.82711300  0.64508900  1
  Mg  Mg74  1  0.21144400  0.57711300  0.58258900  1
  Mg  Mg75  1  0.51738000  0.39059100  0.73807100  1
  Mg  Mg76  1  0.94836700  0.10326600  0.80990300  1
  Mg  Mg77  1  0.09202900  0.39059100  0.73807100  1
  Mg  Mg78  1  0.15550800  0.26363400  0.80210700  1
  Mg  Mg79  1  0.72452000  0.55095900  0.73027600  1
  Mg  Mg80  1  0.58085800  0.26363400  0.80210700  1
  Mg  Mg81  1  0.31280400  0.94904100  0.72345900  1
  Mg  Mg82  1  0.63181700  0.73636600  0.77662800  1
  Mg  Mg83  1  0.73815500  0.94904100  0.72345900  1
  Mg  Mg84  1  0.61008300  0.20518400  0.69172000  1
  Mg  Mg85  1  0.04107000  0.91786000  0.76355100  1
  Mg  Mg86  1  0.18473300  0.20518400  0.69172000  1
  Mg  Mg87  1  0.70572200  0.97160400  0.79646600  1
  Mg  Mg88  1  0.41843600  0.16312900  0.74858500  1
  Mg  Mg89  1  0.32267400  0.97160400  0.79646600  1
  Mg  Mg90  1  0.96716600  0.68262100  0.74371200  1
  Mg  Mg91  1  0.25445200  0.49109600  0.79159300  1
  Mg  Mg92  1  0.35021400  0.68262100  0.74371200  1
  Mg  Mg93  1  0.83644400  0.32711300  0.77008900  1
  Mg  Mg94  1  0.96144400  0.07711300  0.70758900  1
  Pd  Pd95  1  0.11695300  0.13982400  0.25441100  1
  Pd  Pd96  1  0.74322300  0.13982400  0.25441100  1
  Pd  Pd97  1  0.55593500  0.51440100  0.28576700  1
  Pd  Pd98  1  0.92966400  0.51440100  0.28576700  1
  Pd  Pd99  1  0.86695300  0.63982400  0.37941100  1
  Pd  Pd100  1  0.58665500  0.82668900  0.33269500  1
  Pd  Pd101  1  0.49322300  0.63982400  0.37941100  1
  Pd  Pd102  1  0.30593500  0.01440100  0.41076700  1
  Pd  Pd103  1  0.83623200  0.32753600  0.33248300  1
  Pd  Pd104  1  0.67966400  0.01440100  0.41076700  1
  Pd  Pd105  1  0.06561000  0.86877900  0.32217300  1
  Pd  Pd106  1  0.35727700  0.28544600  0.34300600  1
  Pd  Pd107  1  0.61695300  0.13982400  0.50441100  1
  Pd  Pd108  1  0.33665500  0.32668900  0.45769500  1
  Pd  Pd109  1  0.24322300  0.13982400  0.50441100  1
  Pd  Pd110  1  0.05593500  0.51440100  0.53576700  1
  Pd  Pd111  1  0.58623200  0.82753600  0.45748300  1
  Pd  Pd112  1  0.42966400  0.51440100  0.53576700  1
  Pd  Pd113  1  0.81561000  0.36877900  0.44717300  1
  Pd  Pd114  1  0.10727700  0.78544600  0.46800600  1
  Pd  Pd115  1  0.36695300  0.63982400  0.62941100  1
  Pd  Pd116  1  0.08665500  0.82668900  0.58269500  1
  Pd  Pd117  1  0.99322300  0.63982400  0.62941100  1
  Pd  Pd118  1  0.80593500  0.01440100  0.66076700  1
  Pd  Pd119  1  0.33623200  0.32753600  0.58248300  1
  Pd  Pd120  1  0.17966400  0.01440100  0.66076700  1
  Pd  Pd121  1  0.56561000  0.86877900  0.57217300  1
  Pd  Pd122  1  0.85727700  0.28544600  0.59300600  1
  Pd  Pd123  1  0.11695300  0.13982400  0.75441100  1
  Pd  Pd124  1  0.83665500  0.32668900  0.70769500  1
  Pd  Pd125  1  0.74322300  0.13982400  0.75441100  1
  Pd  Pd126  1  0.55593500  0.51440100  0.78576700  1
  Pd  Pd127  1  0.08623200  0.82753600  0.70748300  1
  Pd  Pd128  1  0.92966400  0.51440100  0.78576700  1
  Pd  Pd129  1  0.31561000  0.36877900  0.69717300  1
  Pd  Pd130  1  0.60727700  0.78544600  0.71800600  1
