# generated using pymatgen
data_Mg44Si25
_symmetry_space_group_name_H-M   'P 1'
_cell_length_a   7.16868100
_cell_length_b   14.27249566
_cell_length_c   44.68541400
_cell_angle_alpha   83.39369965
_cell_angle_beta   90.00000000
_cell_angle_gamma   75.45524452
_symmetry_Int_Tables_number   1
_chemical_formula_structural   Mg44Si25
_chemical_formula_sum   'Mg88 Si50'
_cell_volume   4394.09300978
_cell_formula_units_Z   2
loop_
 _symmetry_equiv_pos_site_id
 _symmetry_equiv_pos_as_xyz
  1  'x, y, z'
loop_
 _atom_site_type_symbol
 _atom_site_label
 _atom_site_symmetry_multiplicity
 _atom_site_fract_x
 _atom_site_fract_y
 _atom_site_fract_z
 _atom_site_occupancy
  Mg  Mg0  1  0.81453700  0.90304900  0.27828900  1
  Mg  Mg1  1  0.62835300  0.54914900  0.20523900  1
  Mg  Mg2  1  0.17097000  0.42671500  0.26645500  1
  Mg  Mg3  1  0.23610200  0.84391500  0.30785500  1
  Mg  Mg4  1  0.15372000  0.97148200  0.24407200  1
  Mg  Mg5  1  0.59253600  0.36758200  0.29602200  1
  Mg  Mg6  1  0.84225400  0.86814500  0.21278300  1
  Mg  Mg7  1  0.02843800  0.22204500  0.28583300  1
  Mg  Mg8  1  0.48582100  0.34447900  0.22461600  1
  Mg  Mg9  1  0.04568900  0.67727900  0.30821600  1
  Mg  Mg10  1  0.50307100  0.79971200  0.24699900  1
  Mg  Mg11  1  0.06425500  0.40361200  0.19504900  1
  Mg  Mg12  1  0.90953100  0.64154600  0.24256100  1
  Mg  Mg13  1  0.40310400  0.03459900  0.29603500  1
  Mg  Mg14  1  0.24107300  0.18004400  0.22331200  1
  Mg  Mg15  1  0.41571800  0.59115000  0.26775900  1
  Mg  Mg16  1  0.25368700  0.73659500  0.19503700  1
  Mg  Mg17  1  0.74726000  0.12964800  0.24851000  1
  Mg  Mg18  1  0.43953700  0.65304900  0.40328900  1
  Mg  Mg19  1  0.25335300  0.29914900  0.33023900  1
  Mg  Mg20  1  0.79597000  0.17671500  0.39145500  1
  Mg  Mg21  1  0.86110200  0.59391500  0.43285500  1
  Mg  Mg22  1  0.77872000  0.72148200  0.36907200  1
  Mg  Mg23  1  0.21753600  0.11758200  0.42102200  1
  Mg  Mg24  1  0.46725400  0.61814500  0.33778300  1
  Mg  Mg25  1  0.65343800  0.97204500  0.41083300  1
  Mg  Mg26  1  0.11082100  0.09447900  0.34961600  1
  Mg  Mg27  1  0.67068900  0.42727900  0.43321600  1
  Mg  Mg28  1  0.12807100  0.54971200  0.37199900  1
  Mg  Mg29  1  0.68925500  0.15361200  0.32004900  1
  Mg  Mg30  1  0.53453100  0.39154600  0.36756100  1
  Mg  Mg31  1  0.02810400  0.78459900  0.42103500  1
  Mg  Mg32  1  0.86607300  0.93004400  0.34831200  1
  Mg  Mg33  1  0.04071800  0.34115000  0.39275900  1
  Mg  Mg34  1  0.87868700  0.48659500  0.32003700  1
  Mg  Mg35  1  0.37226000  0.87964800  0.37351000  1
  Mg  Mg36  1  0.06453700  0.40304900  0.52828900  1
  Mg  Mg37  1  0.87835300  0.04914900  0.45523900  1
  Mg  Mg38  1  0.42097000  0.92671500  0.51645500  1
  Mg  Mg39  1  0.48610200  0.34391500  0.55785500  1
  Mg  Mg40  1  0.40372000  0.47148200  0.49407200  1
  Mg  Mg41  1  0.84253600  0.86758200  0.54602200  1
  Mg  Mg42  1  0.09225400  0.36814500  0.46278300  1
  Mg  Mg43  1  0.27843800  0.72204500  0.53583300  1
  Mg  Mg44  1  0.73582100  0.84447900  0.47461600  1
  Mg  Mg45  1  0.29568900  0.17727900  0.55821600  1
  Mg  Mg46  1  0.75307100  0.29971200  0.49699900  1
  Mg  Mg47  1  0.31425500  0.90361200  0.44504900  1
  Mg  Mg48  1  0.15953100  0.14154600  0.49256100  1
  Mg  Mg49  1  0.65310400  0.53459900  0.54603500  1
  Mg  Mg50  1  0.49107300  0.68004400  0.47331200  1
  Mg  Mg51  1  0.66571800  0.09115000  0.51775900  1
  Mg  Mg52  1  0.50368700  0.23659500  0.44503700  1
  Mg  Mg53  1  0.99726000  0.62964800  0.49851000  1
  Mg  Mg54  1  0.68953700  0.15304900  0.65328900  1
  Mg  Mg55  1  0.50335300  0.79914900  0.58023900  1
  Mg  Mg56  1  0.04597000  0.67671500  0.64145500  1
  Mg  Mg57  1  0.11110200  0.09391500  0.68285500  1
  Mg  Mg58  1  0.02872000  0.22148200  0.61907200  1
  Mg  Mg59  1  0.46753600  0.61758200  0.67102200  1
  Mg  Mg60  1  0.71725400  0.11814500  0.58778300  1
  Mg  Mg61  1  0.90343800  0.47204500  0.66083300  1
  Mg  Mg62  1  0.36082100  0.59447900  0.59961600  1
  Mg  Mg63  1  0.92068900  0.92727900  0.68321600  1
  Mg  Mg64  1  0.37807100  0.04971200  0.62199900  1
  Mg  Mg65  1  0.93925500  0.65361200  0.57004900  1
  Mg  Mg66  1  0.78453100  0.89154600  0.61756100  1
  Mg  Mg67  1  0.27810400  0.28459900  0.67103500  1
  Mg  Mg68  1  0.11607300  0.43004400  0.59831200  1
  Mg  Mg69  1  0.29071800  0.84115000  0.64275900  1
  Mg  Mg70  1  0.12868700  0.98659500  0.57003700  1
  Mg  Mg71  1  0.62226000  0.37964800  0.62351000  1
  Mg  Mg72  1  0.31453700  0.90304900  0.77828900  1
  Mg  Mg73  1  0.12835300  0.54914900  0.70523900  1
  Mg  Mg74  1  0.67097000  0.42671500  0.76645500  1
  Mg  Mg75  1  0.65372000  0.97148200  0.74407200  1
  Mg  Mg76  1  0.09253600  0.36758200  0.79602200  1
  Mg  Mg77  1  0.34225400  0.86814500  0.71278300  1
  Mg  Mg78  1  0.52843800  0.22204500  0.78583300  1
  Mg  Mg79  1  0.98582100  0.34447900  0.72461600  1
  Mg  Mg80  1  0.00307100  0.79971200  0.74699900  1
  Mg  Mg81  1  0.56425500  0.40361200  0.69504900  1
  Mg  Mg82  1  0.40953100  0.64154600  0.74256100  1
  Mg  Mg83  1  0.90310400  0.03459900  0.79603500  1
  Mg  Mg84  1  0.74107300  0.18004400  0.72331200  1
  Mg  Mg85  1  0.91571800  0.59115000  0.76775900  1
  Mg  Mg86  1  0.75368700  0.73659500  0.69503700  1
  Mg  Mg87  1  0.24726000  0.12964800  0.74851000  1
  Si  Si88  1  0.67849200  0.68540300  0.29550300  1
  Si  Si89  1  0.86599200  0.31040300  0.23300300  1
  Si  Si90  1  0.97829900  0.08579100  0.19556800  1
  Si  Si91  1  0.79079900  0.46079100  0.25806800  1
  Si  Si92  1  0.65131200  0.73976400  0.19345200  1
  Si  Si93  1  0.00547900  0.03143000  0.29761900  1
  Si  Si94  1  0.25392900  0.53452900  0.21480200  1
  Si  Si95  1  0.52476300  0.99286200  0.23563600  1
  Si  Si96  1  0.40286200  0.23666500  0.27626900  1
  Si  Si97  1  0.13202800  0.77833200  0.25543600  1
  Si  Si98  1  0.30349200  0.43540300  0.42050300  1
  Si  Si99  1  0.49099200  0.06040300  0.35800300  1
  Si  Si100  1  0.60329900  0.83579100  0.32056800  1
  Si  Si101  1  0.41579900  0.21079100  0.38306800  1
  Si  Si102  1  0.27631200  0.48976400  0.31845200  1
  Si  Si103  1  0.63047900  0.78143000  0.42261900  1
  Si  Si104  1  0.87892900  0.28452900  0.33980200  1
  Si  Si105  1  0.14976300  0.74286200  0.36063600  1
  Si  Si106  1  0.02786200  0.98666500  0.40126900  1
  Si  Si107  1  0.75702800  0.52833200  0.38043600  1
  Si  Si108  1  0.92849200  0.18540300  0.54550300  1
  Si  Si109  1  0.11599200  0.81040300  0.48300300  1
  Si  Si110  1  0.22829900  0.58579100  0.44556800  1
  Si  Si111  1  0.04079900  0.96079100  0.50806800  1
  Si  Si112  1  0.90131200  0.23976400  0.44345200  1
  Si  Si113  1  0.25547900  0.53143000  0.54761900  1
  Si  Si114  1  0.50392900  0.03452900  0.46480200  1
  Si  Si115  1  0.77476300  0.49286200  0.48563600  1
  Si  Si116  1  0.65286200  0.73666500  0.52626900  1
  Si  Si117  1  0.38202800  0.27833200  0.50543600  1
  Si  Si118  1  0.55349200  0.93540300  0.67050300  1
  Si  Si119  1  0.74099200  0.56040300  0.60800300  1
  Si  Si120  1  0.85329900  0.33579100  0.57056800  1
  Si  Si121  1  0.66579900  0.71079100  0.63306800  1
  Si  Si122  1  0.52631200  0.98976400  0.56845200  1
  Si  Si123  1  0.88047900  0.28143000  0.67261900  1
  Si  Si124  1  0.12892900  0.78452900  0.58980200  1
  Si  Si125  1  0.39976300  0.24286200  0.61063600  1
  Si  Si126  1  0.27786200  0.48666500  0.65126900  1
  Si  Si127  1  0.00702800  0.02833200  0.63043600  1
  Si  Si128  1  0.17849200  0.68540300  0.79550300  1
  Si  Si129  1  0.36599200  0.31040300  0.73300300  1
  Si  Si130  1  0.47829900  0.08579100  0.69556800  1
  Si  Si131  1  0.29079900  0.46079100  0.75806800  1
  Si  Si132  1  0.15131200  0.73976400  0.69345200  1
  Si  Si133  1  0.50547900  0.03143000  0.79761900  1
  Si  Si134  1  0.75392900  0.53452900  0.71480200  1
  Si  Si135  1  0.02476300  0.99286200  0.73563600  1
  Si  Si136  1  0.90286200  0.23666500  0.77626900  1
  Si  Si137  1  0.63202800  0.77833200  0.75543600  1
