# generated using pymatgen
data_Pm9Mg5
_symmetry_space_group_name_H-M   'P 1'
_cell_length_a   3.81728300
_cell_length_b   18.28446347
_cell_length_c   43.05431600
_cell_angle_alpha   95.91282997
_cell_angle_beta   90.00000000
_cell_angle_gamma   90.00000000
_symmetry_Int_Tables_number   1
_chemical_formula_structural   Pm9Mg5
_chemical_formula_sum   'Pm36 Mg20'
_cell_volume   2989.07326807
_cell_formula_units_Z   4
loop_
 _symmetry_equiv_pos_site_id
 _symmetry_equiv_pos_as_xyz
  1  'x, y, z'
loop_
 _atom_site_type_symbol
 _atom_site_label
 _atom_site_symmetry_multiplicity
 _atom_site_fract_x
 _atom_site_fract_y
 _atom_site_fract_z
 _atom_site_occupancy
  Pm  Pm0  1  0.00000000  0.99517400  0.27144000  1
  Pm  Pm1  1  0.50000000  0.83601400  0.29417700  1
  Pm  Pm2  1  0.50000000  0.64949900  0.24939300  1
  Pm  Pm3  1  0.00000000  0.80865900  0.22665600  1
  Pm  Pm4  1  0.50000000  0.43267400  0.20894000  1
  Pm  Pm5  1  0.00000000  0.27351400  0.23167700  1
  Pm  Pm6  1  0.00000000  0.21199900  0.31189300  1
  Pm  Pm7  1  0.50000000  0.37115900  0.28915600  1
  Pm  Pm8  1  0.00000000  0.12017400  0.39644000  1
  Pm  Pm9  1  0.50000000  0.96101400  0.41917700  1
  Pm  Pm10  1  0.50000000  0.77449900  0.37439300  1
  Pm  Pm11  1  0.00000000  0.93365900  0.35165600  1
  Pm  Pm12  1  0.50000000  0.55767400  0.33394000  1
  Pm  Pm13  1  1.00000000  0.39851400  0.35667700  1
  Pm  Pm14  1  0.00000000  0.33699900  0.43689300  1
  Pm  Pm15  1  0.50000000  0.49615900  0.41415600  1
  Pm  Pm16  1  0.00000000  0.24517400  0.52144000  1
  Pm  Pm17  1  0.50000000  0.08601400  0.54417700  1
  Pm  Pm18  1  0.50000000  0.89949900  0.49939300  1
  Pm  Pm19  1  0.00000000  0.05865900  0.47665600  1
  Pm  Pm20  1  0.50000000  0.68267400  0.45894000  1
  Pm  Pm21  1  0.00000000  0.52351400  0.48167700  1
  Pm  Pm22  1  0.00000000  0.46199900  0.56189300  1
  Pm  Pm23  1  0.50000000  0.62115900  0.53915600  1
  Pm  Pm24  1  0.00000000  0.37017400  0.64644000  1
  Pm  Pm25  1  0.50000000  0.21101400  0.66917700  1
  Pm  Pm26  1  0.50000000  0.02449900  0.62439300  1
  Pm  Pm27  1  0.00000000  0.18365900  0.60165600  1
  Pm  Pm28  1  0.50000000  0.80767400  0.58394000  1
  Pm  Pm29  1  0.00000000  0.64851400  0.60667700  1
  Pm  Pm30  1  1.00000000  0.58699900  0.68689300  1
  Pm  Pm31  1  0.50000000  0.74615900  0.66415600  1
  Pm  Pm32  1  0.50000000  0.14949900  0.74939300  1
  Pm  Pm33  1  0.00000000  0.30865900  0.72665600  1
  Pm  Pm34  1  0.50000000  0.93267400  0.70894000  1
  Pm  Pm35  1  0.00000000  0.77351400  0.73167700  1
  Mg  Mg36  1  0.00000000  0.57038400  0.18926700  1
  Mg  Mg37  1  0.50000000  0.94928900  0.20656600  1
  Mg  Mg38  1  0.50000000  0.13288400  0.25176700  1
  Mg  Mg39  1  0.00000000  0.51178900  0.26906600  1
  Mg  Mg40  1  0.00000000  0.69538400  0.31426700  1
  Mg  Mg41  1  0.50000000  0.07428900  0.33156600  1
  Mg  Mg42  1  0.50000000  0.25788400  0.37676700  1
  Mg  Mg43  1  1.00000000  0.63678900  0.39406600  1
  Mg  Mg44  1  0.00000000  0.82038400  0.43926700  1
  Mg  Mg45  1  0.50000000  0.19928900  0.45656600  1
  Mg  Mg46  1  0.50000000  0.38288400  0.50176700  1
  Mg  Mg47  1  1.00000000  0.76178900  0.51906600  1
  Mg  Mg48  1  0.00000000  0.94538400  0.56426700  1
  Mg  Mg49  1  0.50000000  0.32428900  0.58156600  1
  Mg  Mg50  1  0.50000000  0.50788400  0.62676700  1
  Mg  Mg51  1  0.00000000  0.88678900  0.64406600  1
  Mg  Mg52  1  0.00000000  0.07038400  0.68926700  1
  Mg  Mg53  1  0.50000000  0.44928900  0.70656600  1
  Mg  Mg54  1  0.50000000  0.63288400  0.75176700  1
  Mg  Mg55  1  1.00000000  0.01178900  0.76906600  1
