# generated using pymatgen
data_Mg7Rh3
_symmetry_space_group_name_H-M   'P 1'
_cell_length_a   8.03467500
_cell_length_b   14.96547200
_cell_length_c   43.20159700
_cell_angle_alpha   90.00000000
_cell_angle_beta   90.00000000
_cell_angle_gamma   90.00000000
_symmetry_Int_Tables_number   1
_chemical_formula_structural   Mg7Rh3
_chemical_formula_sum   'Mg112 Rh48'
_cell_volume   5194.67682923
_cell_formula_units_Z   16
loop_
 _symmetry_equiv_pos_site_id
 _symmetry_equiv_pos_as_xyz
  1  'x, y, z'
loop_
 _atom_site_type_symbol
 _atom_site_label
 _atom_site_symmetry_multiplicity
 _atom_site_fract_x
 _atom_site_fract_y
 _atom_site_fract_z
 _atom_site_occupancy
  Mg  Mg0  1  0.50000000  0.69825300  0.26428600  1
  Mg  Mg1  1  1.00000000  0.69825300  0.26428600  1
  Mg  Mg2  1  0.25000000  0.42813700  0.22635600  1
  Mg  Mg3  1  0.75000000  0.96837000  0.22635600  1
  Mg  Mg4  1  0.75000000  0.15802000  0.26428600  1
  Mg  Mg5  1  0.25000000  0.23848700  0.26428600  1
  Mg  Mg6  1  0.25000000  0.42813700  0.30221600  1
  Mg  Mg7  1  0.75000000  0.96837000  0.30221600  1
  Mg  Mg8  1  0.06451600  0.88955200  0.26428600  1
  Mg  Mg9  1  0.56451600  0.50695500  0.26428600  1
  Mg  Mg10  1  0.43548400  0.88955200  0.26428600  1
  Mg  Mg11  1  0.93548400  0.50695500  0.26428600  1
  Mg  Mg12  1  0.50000000  0.19825300  0.36428600  1
  Mg  Mg13  1  1.00000000  0.19825300  0.36428600  1
  Mg  Mg14  1  0.25000000  0.92813700  0.32635600  1
  Mg  Mg15  1  0.75000000  0.46837000  0.32635600  1
  Mg  Mg16  1  0.75000000  0.65802000  0.36428600  1
  Mg  Mg17  1  0.25000000  0.73848700  0.36428600  1
  Mg  Mg18  1  0.25000000  0.92813700  0.40221600  1
  Mg  Mg19  1  0.75000000  0.46837000  0.40221600  1
  Mg  Mg20  1  0.56451600  0.29390300  0.30689600  1
  Mg  Mg21  1  0.06451600  0.10260400  0.30689600  1
  Mg  Mg22  1  0.06451600  0.38955200  0.36428600  1
  Mg  Mg23  1  0.56451600  0.00695500  0.36428600  1
  Mg  Mg24  1  0.56451600  0.79390300  0.32167500  1
  Mg  Mg25  1  0.43548400  0.60260400  0.32167500  1
  Mg  Mg26  1  0.43548400  0.10260400  0.30689600  1
  Mg  Mg27  1  0.06451600  0.60260400  0.32167500  1
  Mg  Mg28  1  0.43548400  0.38955200  0.36428600  1
  Mg  Mg29  1  0.93548400  0.00695500  0.36428600  1
  Mg  Mg30  1  0.93548400  0.29390300  0.30689600  1
  Mg  Mg31  1  0.93548400  0.79390300  0.32167500  1
  Mg  Mg32  1  0.50000000  0.69825300  0.46428600  1
  Mg  Mg33  1  1.00000000  0.69825300  0.46428600  1
  Mg  Mg34  1  0.25000000  0.42813700  0.42635600  1
  Mg  Mg35  1  0.75000000  0.96837000  0.42635600  1
  Mg  Mg36  1  0.75000000  0.15802000  0.46428600  1
  Mg  Mg37  1  0.25000000  0.23848700  0.46428600  1
  Mg  Mg38  1  0.25000000  0.42813700  0.50221600  1
  Mg  Mg39  1  0.75000000  0.96837000  0.50221600  1
  Mg  Mg40  1  0.56451600  0.79390300  0.40689600  1
  Mg  Mg41  1  0.06451600  0.60260400  0.40689600  1
  Mg  Mg42  1  0.06451600  0.88955200  0.46428600  1
  Mg  Mg43  1  0.56451600  0.50695500  0.46428600  1
  Mg  Mg44  1  0.56451600  0.29390300  0.42167500  1
  Mg  Mg45  1  0.43548400  0.10260400  0.42167500  1
  Mg  Mg46  1  0.43548400  0.60260400  0.40689600  1
  Mg  Mg47  1  0.06451600  0.10260400  0.42167500  1
  Mg  Mg48  1  0.43548400  0.88955200  0.46428600  1
  Mg  Mg49  1  0.93548400  0.50695500  0.46428600  1
  Mg  Mg50  1  0.93548400  0.79390300  0.40689600  1
  Mg  Mg51  1  0.93548400  0.29390300  0.42167500  1
  Mg  Mg52  1  0.50000000  0.19825300  0.56428600  1
  Mg  Mg53  1  1.00000000  0.19825300  0.56428600  1
  Mg  Mg54  1  0.25000000  0.92813700  0.52635600  1
  Mg  Mg55  1  0.75000000  0.46837000  0.52635600  1
  Mg  Mg56  1  0.75000000  0.65802000  0.56428600  1
  Mg  Mg57  1  0.25000000  0.73848700  0.56428600  1
  Mg  Mg58  1  0.25000000  0.92813700  0.60221600  1
  Mg  Mg59  1  0.75000000  0.46837000  0.60221600  1
  Mg  Mg60  1  0.56451600  0.29390300  0.50689600  1
  Mg  Mg61  1  0.06451600  0.10260400  0.50689600  1
  Mg  Mg62  1  0.06451600  0.38955200  0.56428600  1
  Mg  Mg63  1  0.56451600  0.00695500  0.56428600  1
  Mg  Mg64  1  0.56451600  0.79390300  0.52167500  1
  Mg  Mg65  1  0.43548400  0.60260400  0.52167500  1
  Mg  Mg66  1  0.43548400  0.10260400  0.50689600  1
  Mg  Mg67  1  0.06451600  0.60260400  0.52167500  1
  Mg  Mg68  1  0.43548400  0.38955200  0.56428600  1
  Mg  Mg69  1  0.93548400  0.00695500  0.56428600  1
  Mg  Mg70  1  0.93548400  0.29390300  0.50689600  1
  Mg  Mg71  1  0.93548400  0.79390300  0.52167500  1
  Mg  Mg72  1  0.50000000  0.69825300  0.66428600  1
  Mg  Mg73  1  1.00000000  0.69825300  0.66428600  1
  Mg  Mg74  1  0.25000000  0.42813700  0.62635600  1
  Mg  Mg75  1  0.75000000  0.96837000  0.62635600  1
  Mg  Mg76  1  0.75000000  0.15802000  0.66428600  1
  Mg  Mg77  1  0.25000000  0.23848700  0.66428600  1
  Mg  Mg78  1  0.25000000  0.42813700  0.70221600  1
  Mg  Mg79  1  0.75000000  0.96837000  0.70221600  1
  Mg  Mg80  1  0.56451600  0.79390300  0.60689600  1
  Mg  Mg81  1  0.06451600  0.60260400  0.60689600  1
  Mg  Mg82  1  0.06451600  0.88955200  0.66428600  1
  Mg  Mg83  1  0.56451600  0.50695500  0.66428600  1
  Mg  Mg84  1  0.56451600  0.29390300  0.62167500  1
  Mg  Mg85  1  0.43548400  0.10260400  0.62167500  1
  Mg  Mg86  1  0.43548400  0.60260400  0.60689600  1
  Mg  Mg87  1  0.06451600  0.10260400  0.62167500  1
  Mg  Mg88  1  0.43548400  0.88955200  0.66428600  1
  Mg  Mg89  1  0.93548400  0.50695500  0.66428600  1
  Mg  Mg90  1  0.93548400  0.79390300  0.60689600  1
  Mg  Mg91  1  0.93548400  0.29390300  0.62167500  1
  Mg  Mg92  1  0.50000000  0.19825300  0.76428600  1
  Mg  Mg93  1  1.00000000  0.19825300  0.76428600  1
  Mg  Mg94  1  0.25000000  0.92813700  0.72635600  1
  Mg  Mg95  1  0.75000000  0.46837000  0.72635600  1
  Mg  Mg96  1  0.75000000  0.65802000  0.76428600  1
  Mg  Mg97  1  0.25000000  0.73848700  0.76428600  1
  Mg  Mg98  1  0.25000000  0.92813700  0.80221600  1
  Mg  Mg99  1  0.75000000  0.46837000  0.80221600  1
  Mg  Mg100  1  0.56451600  0.29390300  0.70689600  1
  Mg  Mg101  1  0.06451600  0.10260400  0.70689600  1
  Mg  Mg102  1  0.06451600  0.38955200  0.76428600  1
  Mg  Mg103  1  0.56451600  0.00695500  0.76428600  1
  Mg  Mg104  1  0.56451600  0.79390300  0.72167500  1
  Mg  Mg105  1  0.43548400  0.60260400  0.72167500  1
  Mg  Mg106  1  0.43548400  0.10260400  0.70689600  1
  Mg  Mg107  1  0.06451600  0.60260400  0.72167500  1
  Mg  Mg108  1  0.43548400  0.38955200  0.76428600  1
  Mg  Mg109  1  0.93548400  0.00695500  0.76428600  1
  Mg  Mg110  1  0.93548400  0.29390300  0.70689600  1
  Mg  Mg111  1  0.93548400  0.79390300  0.72167500  1
  Rh  Rh112  1  0.75000000  0.36492000  0.26428600  1
  Rh  Rh113  1  0.25000000  0.03158700  0.26428600  1
  Rh  Rh114  1  0.25000000  0.75940500  0.22759500  1
  Rh  Rh115  1  0.75000000  0.63710200  0.22759500  1
  Rh  Rh116  1  0.75000000  0.82055700  0.26428600  1
  Rh  Rh117  1  0.25000000  0.57595000  0.26428600  1
  Rh  Rh118  1  0.25000000  0.75940500  0.30097700  1
  Rh  Rh119  1  0.75000000  0.63710200  0.30097700  1
  Rh  Rh120  1  0.75000000  0.86492000  0.36428600  1
  Rh  Rh121  1  0.25000000  0.53158700  0.36428600  1
  Rh  Rh122  1  0.25000000  0.25940500  0.32759500  1
  Rh  Rh123  1  0.75000000  0.13710200  0.32759500  1
  Rh  Rh124  1  0.75000000  0.32055700  0.36428600  1
  Rh  Rh125  1  0.25000000  0.07595000  0.36428600  1
  Rh  Rh126  1  0.25000000  0.25940500  0.40097700  1
  Rh  Rh127  1  0.75000000  0.13710200  0.40097700  1
  Rh  Rh128  1  0.75000000  0.36492000  0.46428600  1
  Rh  Rh129  1  0.25000000  0.03158700  0.46428600  1
  Rh  Rh130  1  0.25000000  0.75940500  0.42759500  1
  Rh  Rh131  1  0.75000000  0.63710200  0.42759500  1
  Rh  Rh132  1  0.75000000  0.82055700  0.46428600  1
  Rh  Rh133  1  0.25000000  0.57595000  0.46428600  1
  Rh  Rh134  1  0.25000000  0.75940500  0.50097700  1
  Rh  Rh135  1  0.75000000  0.63710200  0.50097700  1
  Rh  Rh136  1  0.75000000  0.86492000  0.56428600  1
  Rh  Rh137  1  0.25000000  0.53158700  0.56428600  1
  Rh  Rh138  1  0.25000000  0.25940500  0.52759500  1
  Rh  Rh139  1  0.75000000  0.13710200  0.52759500  1
  Rh  Rh140  1  0.75000000  0.32055700  0.56428600  1
  Rh  Rh141  1  0.25000000  0.07595000  0.56428600  1
  Rh  Rh142  1  0.25000000  0.25940500  0.60097700  1
  Rh  Rh143  1  0.75000000  0.13710200  0.60097700  1
  Rh  Rh144  1  0.75000000  0.36492000  0.66428600  1
  Rh  Rh145  1  0.25000000  0.03158700  0.66428600  1
  Rh  Rh146  1  0.25000000  0.75940500  0.62759500  1
  Rh  Rh147  1  0.75000000  0.63710200  0.62759500  1
  Rh  Rh148  1  0.75000000  0.82055700  0.66428600  1
  Rh  Rh149  1  0.25000000  0.57595000  0.66428600  1
  Rh  Rh150  1  0.25000000  0.75940500  0.70097700  1
  Rh  Rh151  1  0.75000000  0.63710200  0.70097700  1
  Rh  Rh152  1  0.75000000  0.86492000  0.76428600  1
  Rh  Rh153  1  0.25000000  0.53158700  0.76428600  1
  Rh  Rh154  1  0.25000000  0.25940500  0.72759500  1
  Rh  Rh155  1  0.75000000  0.13710200  0.72759500  1
  Rh  Rh156  1  0.75000000  0.32055700  0.76428600  1
  Rh  Rh157  1  0.25000000  0.07595000  0.76428600  1
  Rh  Rh158  1  0.25000000  0.25940500  0.80097700  1
  Rh  Rh159  1  0.75000000  0.13710200  0.80097700  1
