# generated using pymatgen
data_Mg23Cd11
_symmetry_space_group_name_H-M   'P 1'
_cell_length_a   3.17171500
_cell_length_b   16.93132419
_cell_length_c   49.41679400
_cell_angle_alpha   91.18141472
_cell_angle_beta   90.00000000
_cell_angle_gamma   90.00000000
_symmetry_Int_Tables_number   1
_chemical_formula_structural   Mg23Cd11
_chemical_formula_sum   'Mg46 Cd22'
_cell_volume   2653.18368184
_cell_formula_units_Z   2
loop_
 _symmetry_equiv_pos_site_id
 _symmetry_equiv_pos_as_xyz
  1  'x, y, z'
loop_
 _atom_site_type_symbol
 _atom_site_label
 _atom_site_symmetry_multiplicity
 _atom_site_fract_x
 _atom_site_fract_y
 _atom_site_fract_z
 _atom_site_occupancy
  Mg  Mg0  1  1.00000000  0.55860300  0.20275300  1
  Mg  Mg1  1  0.50000000  0.81099300  0.28582100  1
  Mg  Mg2  1  0.00000000  0.80576800  0.23084600  1
  Mg  Mg3  1  0.50000000  0.95815800  0.21391400  1
  Mg  Mg4  1  0.50000000  0.10860300  0.25275300  1
  Mg  Mg5  1  0.00000000  0.26099300  0.23582100  1
  Mg  Mg6  1  0.50000000  0.35576800  0.28084600  1
  Mg  Mg7  1  1.00000000  0.50815800  0.26391400  1
  Mg  Mg8  1  1.00000000  0.65860300  0.30275300  1
  Mg  Mg9  1  0.50000000  0.91099300  0.38582100  1
  Mg  Mg10  1  1.00000000  0.90576800  0.33084600  1
  Mg  Mg11  1  0.50000000  0.05815800  0.31391400  1
  Mg  Mg12  1  0.50000000  0.20860300  0.35275300  1
  Mg  Mg13  1  0.00000000  0.36099300  0.33582100  1
  Mg  Mg14  1  0.50000000  0.45576800  0.38084600  1
  Mg  Mg15  1  0.00000000  0.60815800  0.36391400  1
  Mg  Mg16  1  0.00000000  0.75860300  0.40275300  1
  Mg  Mg17  1  0.50000000  0.01099300  0.48582100  1
  Mg  Mg18  1  1.00000000  0.00576800  0.43084600  1
  Mg  Mg19  1  0.50000000  0.15815800  0.41391400  1
  Mg  Mg20  1  0.50000000  0.30860300  0.45275300  1
  Mg  Mg21  1  0.00000000  0.46099300  0.43582100  1
  Mg  Mg22  1  0.50000000  0.55576800  0.48084600  1
  Mg  Mg23  1  0.00000000  0.70815800  0.46391400  1
  Mg  Mg24  1  1.00000000  0.85860300  0.50275300  1
  Mg  Mg25  1  0.50000000  0.11099300  0.58582100  1
  Mg  Mg26  1  0.00000000  0.10576800  0.53084600  1
  Mg  Mg27  1  0.50000000  0.25815800  0.51391400  1
  Mg  Mg28  1  0.50000000  0.40860300  0.55275300  1
  Mg  Mg29  1  1.00000000  0.56099300  0.53582100  1
  Mg  Mg30  1  0.50000000  0.65576800  0.58084600  1
  Mg  Mg31  1  1.00000000  0.80815800  0.56391400  1
  Mg  Mg32  1  1.00000000  0.95860300  0.60275300  1
  Mg  Mg33  1  0.50000000  0.21099300  0.68582100  1
  Mg  Mg34  1  1.00000000  0.20576800  0.63084600  1
  Mg  Mg35  1  0.50000000  0.35815800  0.61391400  1
  Mg  Mg36  1  0.50000000  0.50860300  0.65275300  1
  Mg  Mg37  1  1.00000000  0.66099300  0.63582100  1
  Mg  Mg38  1  0.50000000  0.75576800  0.68084600  1
  Mg  Mg39  1  1.00000000  0.90815800  0.66391400  1
  Mg  Mg40  1  0.00000000  0.05860300  0.70275300  1
  Mg  Mg41  1  1.00000000  0.30576800  0.73084600  1
  Mg  Mg42  1  0.50000000  0.45815800  0.71391400  1
  Mg  Mg43  1  0.50000000  0.60860300  0.75275300  1
  Mg  Mg44  1  1.00000000  0.76099300  0.73582100  1
  Mg  Mg45  1  0.00000000  0.00815800  0.76391400  1
  Cd  Cd46  1  0.00000000  0.95775700  0.26951400  1
  Cd  Cd47  1  0.50000000  0.65900400  0.24715300  1
  Cd  Cd48  1  0.50000000  0.40775700  0.21951400  1
  Cd  Cd49  1  1.00000000  0.20900400  0.29715300  1
  Cd  Cd50  1  1.00000000  0.05775700  0.36951400  1
  Cd  Cd51  1  0.50000000  0.75900400  0.34715300  1
  Cd  Cd52  1  0.50000000  0.50775700  0.31951400  1
  Cd  Cd53  1  1.00000000  0.30900400  0.39715300  1
  Cd  Cd54  1  0.00000000  0.15775700  0.46951400  1
  Cd  Cd55  1  0.50000000  0.85900400  0.44715300  1
  Cd  Cd56  1  0.50000000  0.60775700  0.41951400  1
  Cd  Cd57  1  1.00000000  0.40900400  0.49715300  1
  Cd  Cd58  1  0.00000000  0.25775700  0.56951400  1
  Cd  Cd59  1  0.50000000  0.95900400  0.54715300  1
  Cd  Cd60  1  0.50000000  0.70775700  0.51951400  1
  Cd  Cd61  1  0.00000000  0.50900400  0.59715300  1
  Cd  Cd62  1  0.00000000  0.35775700  0.66951400  1
  Cd  Cd63  1  0.50000000  0.05900400  0.64715300  1
  Cd  Cd64  1  0.50000000  0.80775700  0.61951400  1
  Cd  Cd65  1  0.00000000  0.60900400  0.69715300  1
  Cd  Cd66  1  0.50000000  0.15900400  0.74715300  1
  Cd  Cd67  1  0.50000000  0.90775700  0.71951400  1
