# generated using pymatgen
data_Er23Mg8
_symmetry_space_group_name_H-M   'P 1'
_cell_length_a   3.53257600
_cell_length_b   9.91985844
_cell_length_c   43.05424800
_cell_angle_alpha   85.35603539
_cell_angle_beta   90.00000000
_cell_angle_gamma   90.00000000
_symmetry_Int_Tables_number   1
_chemical_formula_structural   Er23Mg8
_chemical_formula_sum   'Er23 Mg8'
_cell_volume   1503.78200125
_cell_formula_units_Z   1
loop_
 _symmetry_equiv_pos_site_id
 _symmetry_equiv_pos_as_xyz
  1  'x, y, z'
loop_
 _atom_site_type_symbol
 _atom_site_label
 _atom_site_symmetry_multiplicity
 _atom_site_fract_x
 _atom_site_fract_y
 _atom_site_fract_z
 _atom_site_occupancy
  Er  Er0  1  0.50000000  0.62395200  0.26032900  1
  Er  Er1  1  0.50000000  0.18516800  0.22044000  1
  Er  Er2  1  0.50000000  0.47010600  0.33725200  1
  Er  Er3  1  0.00000000  0.32763700  0.27884600  1
  Er  Er4  1  0.50000000  0.03132200  0.29736300  1
  Er  Er5  1  0.50000000  0.31626000  0.41417500  1
  Er  Er6  1  1.00000000  0.17379100  0.35576900  1
  Er  Er7  1  0.50000000  0.87747600  0.37428600  1
  Er  Er8  1  0.50000000  0.16241400  0.49109900  1
  Er  Er9  1  0.00000000  0.01994500  0.43269200  1
  Er  Er10  1  0.50000000  0.72363000  0.45120900  1
  Er  Er11  1  0.50000000  0.00856700  0.56802200  1
  Er  Er12  1  1.00000000  0.86609900  0.50961500  1
  Er  Er13  1  0.50000000  0.56978400  0.52813200  1
  Er  Er14  1  0.50000000  0.85472100  0.64494500  1
  Er  Er15  1  0.00000000  0.71225200  0.58653800  1
  Er  Er16  1  0.50000000  0.41593700  0.60505500  1
  Er  Er17  1  0.50000000  0.70087500  0.72186800  1
  Er  Er18  1  0.00000000  0.55840600  0.66346200  1
  Er  Er19  1  0.50000000  0.26209100  0.68197800  1
  Er  Er20  1  0.50000000  0.54702900  0.79879100  1
  Er  Er21  1  0.00000000  0.40456000  0.74038500  1
  Er  Er22  1  0.50000000  0.10824500  0.75890100  1
  Mg  Mg23  1  1.00000000  0.90456000  0.24038500  1
  Mg  Mg24  1  0.00000000  0.75071400  0.31730800  1
  Mg  Mg25  1  0.00000000  0.59686800  0.39423100  1
  Mg  Mg26  1  1.00000000  0.44302200  0.47115400  1
  Mg  Mg27  1  0.00000000  0.28917500  0.54807700  1
  Mg  Mg28  1  1.00000000  0.13532900  0.62500000  1
  Mg  Mg29  1  0.00000000  0.98148300  0.70192300  1
  Mg  Mg30  1  0.00000000  0.82763700  0.77884600  1
