# generated using pymatgen
data_Mg53Zn92
_symmetry_space_group_name_H-M   'P 1'
_cell_length_a   14.70723629
_cell_length_b   15.05206002
_cell_length_c   44.20851200
_cell_angle_alpha   83.82995566
_cell_angle_beta   98.78068454
_cell_angle_gamma   102.44989049
_symmetry_Int_Tables_number   1
_chemical_formula_structural   Mg53Zn92
_chemical_formula_sum   'Mg106 Zn184'
_cell_volume   9416.24993022
_cell_formula_units_Z   2
loop_
 _symmetry_equiv_pos_site_id
 _symmetry_equiv_pos_as_xyz
  1  'x, y, z'
loop_
 _atom_site_type_symbol
 _atom_site_label
 _atom_site_symmetry_multiplicity
 _atom_site_fract_x
 _atom_site_fract_y
 _atom_site_fract_z
 _atom_site_occupancy
  Mg  Mg0  1  0.10018000  0.06579800  0.30115600  1
  Mg  Mg1  1  0.28657500  0.84219500  0.25284300  1
  Mg  Mg2  1  0.64768300  0.26208900  0.27262300  1
  Mg  Mg3  1  0.04358200  0.07071300  0.23126500  1
  Mg  Mg4  1  0.39784500  0.01117000  0.21831300  1
  Mg  Mg5  1  0.97194700  0.38909500  0.22813400  1
  Mg  Mg6  1  0.42345600  0.18719400  0.25569300  1
  Mg  Mg7  1  0.95641800  0.70897200  0.29600800  1
  Mg  Mg8  1  0.32381600  0.33965200  0.21705000  1
  Mg  Mg9  1  0.60215500  0.96851400  0.20896000  1
  Mg  Mg10  1  0.35231700  0.51759600  0.25464900  1
  Mg  Mg11  1  0.67618400  0.64003200  0.21022300  1
  Mg  Mg12  1  0.09508800  0.88059600  0.26145500  1
  Mg  Mg13  1  0.74882900  0.31278500  0.21136700  1
  Mg  Mg14  1  0.25117100  0.66689900  0.21590600  1
  Mg  Mg15  1  0.57654400  0.59249000  0.27158000  1
  Mg  Mg16  1  0.89982000  0.71388600  0.22611700  1
  Mg  Mg17  1  0.02805300  0.39058900  0.29913900  1
  Mg  Mg18  1  0.71342500  0.93748900  0.27443000  1
  Mg  Mg19  1  0.90491200  0.89908800  0.26581800  1
  Mg  Mg20  1  0.10018000  0.86579800  0.40115600  1
  Mg  Mg21  1  0.28657500  0.64219500  0.35284300  1
  Mg  Mg22  1  0.64768300  0.06208900  0.37262300  1
  Mg  Mg23  1  0.04358200  0.87071300  0.33126500  1
  Mg  Mg24  1  0.39784500  0.81117000  0.31831300  1
  Mg  Mg25  1  0.97194700  0.18909500  0.32813400  1
  Mg  Mg26  1  0.42345600  0.98719400  0.35569300  1
  Mg  Mg27  1  0.95641800  0.50897200  0.39600800  1
  Mg  Mg28  1  0.32381600  0.13965200  0.31705000  1
  Mg  Mg29  1  0.60215500  0.76851400  0.30896000  1
  Mg  Mg30  1  0.35231700  0.31759600  0.35464900  1
  Mg  Mg31  1  0.67618400  0.44003200  0.31022300  1
  Mg  Mg32  1  0.09508800  0.68059600  0.36145500  1
  Mg  Mg33  1  0.74882900  0.11278500  0.31136700  1
  Mg  Mg34  1  0.25117100  0.46689900  0.31590600  1
  Mg  Mg35  1  0.57654400  0.39249000  0.37158000  1
  Mg  Mg36  1  0.89982000  0.51388600  0.32611700  1
  Mg  Mg37  1  0.02805300  0.19058900  0.39913900  1
  Mg  Mg38  1  0.71342500  0.73748900  0.37443000  1
  Mg  Mg39  1  0.90491200  0.69908800  0.36581800  1
  Mg  Mg40  1  0.10018000  0.66579800  0.50115600  1
  Mg  Mg41  1  0.28657500  0.44219500  0.45284300  1
  Mg  Mg42  1  0.64768300  0.86208900  0.47262300  1
  Mg  Mg43  1  0.04358200  0.67071300  0.43126500  1
  Mg  Mg44  1  0.39784500  0.61117000  0.41831300  1
  Mg  Mg45  1  0.97194700  0.98909500  0.42813400  1
  Mg  Mg46  1  0.42345600  0.78719400  0.45569300  1
  Mg  Mg47  1  0.95641800  0.30897200  0.49600800  1
  Mg  Mg48  1  0.32381600  0.93965200  0.41705000  1
  Mg  Mg49  1  0.60215500  0.56851400  0.40896000  1
  Mg  Mg50  1  0.35231700  0.11759600  0.45464900  1
  Mg  Mg51  1  0.67618400  0.24003200  0.41022300  1
  Mg  Mg52  1  0.09508800  0.48059600  0.46145500  1
  Mg  Mg53  1  0.74882900  0.91278500  0.41136700  1
  Mg  Mg54  1  0.25117100  0.26689900  0.41590600  1
  Mg  Mg55  1  0.57654400  0.19249000  0.47158000  1
  Mg  Mg56  1  0.89982000  0.31388600  0.42611700  1
  Mg  Mg57  1  0.02805300  0.99058900  0.49913900  1
  Mg  Mg58  1  0.71342500  0.53748900  0.47443000  1
  Mg  Mg59  1  0.90491200  0.49908800  0.46581800  1
  Mg  Mg60  1  0.10018000  0.46579800  0.60115600  1
  Mg  Mg61  1  0.28657500  0.24219500  0.55284300  1
  Mg  Mg62  1  0.64768300  0.66208900  0.57262300  1
  Mg  Mg63  1  0.04358200  0.47071300  0.53126500  1
  Mg  Mg64  1  0.39784500  0.41117000  0.51831300  1
  Mg  Mg65  1  0.97194700  0.78909500  0.52813400  1
  Mg  Mg66  1  0.42345600  0.58719400  0.55569300  1
  Mg  Mg67  1  0.95641800  0.10897200  0.59600800  1
  Mg  Mg68  1  0.32381600  0.73965200  0.51705000  1
  Mg  Mg69  1  0.60215500  0.36851400  0.50896000  1
  Mg  Mg70  1  0.35231700  0.91759600  0.55464900  1
  Mg  Mg71  1  0.67618400  0.04003200  0.51022300  1
  Mg  Mg72  1  0.09508800  0.28059600  0.56145500  1
  Mg  Mg73  1  0.74882900  0.71278500  0.51136700  1
  Mg  Mg74  1  0.25117100  0.06689900  0.51590600  1
  Mg  Mg75  1  0.57654400  0.99249000  0.57158000  1
  Mg  Mg76  1  0.89982000  0.11388600  0.52611700  1
  Mg  Mg77  1  0.02805300  0.79058900  0.59913900  1
  Mg  Mg78  1  0.71342500  0.33748900  0.57443000  1
  Mg  Mg79  1  0.90491200  0.29908800  0.56581800  1
  Mg  Mg80  1  0.10018000  0.26579800  0.70115600  1
  Mg  Mg81  1  0.28657500  0.04219500  0.65284300  1
  Mg  Mg82  1  0.64768300  0.46208900  0.67262300  1
  Mg  Mg83  1  0.04358200  0.27071300  0.63126500  1
  Mg  Mg84  1  0.39784500  0.21117000  0.61831300  1
  Mg  Mg85  1  0.97194700  0.58909500  0.62813400  1
  Mg  Mg86  1  0.42345600  0.38719400  0.65569300  1
  Mg  Mg87  1  0.95641800  0.90897200  0.69600800  1
  Mg  Mg88  1  0.32381600  0.53965200  0.61705000  1
  Mg  Mg89  1  0.60215500  0.16851400  0.60896000  1
  Mg  Mg90  1  0.35231700  0.71759600  0.65464900  1
  Mg  Mg91  1  0.67618400  0.84003200  0.61022300  1
  Mg  Mg92  1  0.09508800  0.08059600  0.66145500  1
  Mg  Mg93  1  0.74882900  0.51278500  0.61136700  1
  Mg  Mg94  1  0.25117100  0.86689900  0.61590600  1
  Mg  Mg95  1  0.57654400  0.79249000  0.67158000  1
  Mg  Mg96  1  0.89982000  0.91388600  0.62611700  1
  Mg  Mg97  1  0.02805300  0.59058900  0.69913900  1
  Mg  Mg98  1  0.71342500  0.13748900  0.67443000  1
  Mg  Mg99  1  0.90491200  0.09908800  0.66581800  1
  Mg  Mg100  1  0.39784500  0.01117000  0.71831300  1
  Mg  Mg101  1  0.32381600  0.33965200  0.71705000  1
  Mg  Mg102  1  0.60215500  0.96851400  0.70896000  1
  Mg  Mg103  1  0.67618400  0.64003200  0.71022300  1
  Mg  Mg104  1  0.74882900  0.31278500  0.71136700  1
  Mg  Mg105  1  0.25117100  0.66689900  0.71590600  1
  Zn  Zn106  1  0.40771000  0.99621900  0.28584500  1
  Zn  Zn107  1  0.18261300  0.76495800  0.30820000  1
  Zn  Zn108  1  0.33714800  0.32962700  0.28694900  1
  Zn  Zn109  1  0.75168900  0.73865100  0.26686600  1
  Zn  Zn110  1  0.42323600  0.81581500  0.21136700  1
  Zn  Zn111  1  0.24953100  0.13888000  0.20943700  1
  Zn  Zn112  1  0.50000000  0.38984200  0.26363600  1
  Zn  Zn113  1  0.59229000  0.78346500  0.24142700  1
  Zn  Zn114  1  0.13709400  0.52720400  0.25747200  1
  Zn  Zn115  1  0.57687700  0.06541500  0.26532100  1
  Zn  Zn116  1  0.17552400  0.36891200  0.25866400  1
  Zn  Zn117  1  0.03680400  0.22884800  0.26472700  1
  Zn  Zn118  1  0.53360100  0.32570000  0.21423700  1
  Zn  Zn119  1  0.73237700  0.12256700  0.24286400  1
  Zn  Zn120  1  0.81738700  0.01472600  0.21907300  1
  Zn  Zn121  1  0.86290600  0.25248100  0.26980100  1
  Zn  Zn122  1  0.90034300  0.08620400  0.27130700  1
  Zn  Zn123  1  0.42312300  0.71426900  0.26195200  1
  Zn  Zn124  1  0.75046900  0.84080400  0.21783600  1
  Zn  Zn125  1  0.46639900  0.65398400  0.21303600  1
  Zn  Zn126  1  0.09965700  0.69348000  0.25596600  1
  Zn  Zn127  1  0.57676400  0.16386900  0.21590500  1
  Zn  Zn128  1  0.50000000  0.48984200  0.21363600  1
  Zn  Zn129  1  0.21546200  0.20296500  0.25851300  1
  Zn  Zn130  1  0.17499800  0.46915300  0.20929600  1
  Zn  Zn131  1  0.90216100  0.18703500  0.21957100  1
  Zn  Zn132  1  0.78453800  0.57672000  0.26876000  1
  Zn  Zn133  1  0.09783900  0.59264900  0.30770200  1
  Zn  Zn134  1  0.26762300  0.65711700  0.28440800  1
  Zn  Zn135  1  0.82500200  0.51053100  0.21797600  1
  Zn  Zn136  1  0.24831100  0.04103300  0.26040700  1
  Zn  Zn137  1  0.50000000  0.88984200  0.26363600  1
  Zn  Zn138  1  0.82447600  0.41077200  0.26860800  1
  Zn  Zn139  1  0.96319600  0.55083600  0.26254600  1
  Zn  Zn140  1  0.66285200  0.45005700  0.24032300  1
  Zn  Zn141  1  0.40771000  0.79621900  0.38584500  1
  Zn  Zn142  1  0.18261300  0.56495800  0.40820000  1
  Zn  Zn143  1  0.33714800  0.12962700  0.38694900  1
  Zn  Zn144  1  0.75168900  0.53865100  0.36686600  1
  Zn  Zn145  1  0.42323600  0.61581500  0.31136700  1
  Zn  Zn146  1  0.24953100  0.93888000  0.30943700  1
  Zn  Zn147  1  0.50000000  0.18984200  0.36363600  1
  Zn  Zn148  1  0.59229000  0.58346500  0.34142700  1
  Zn  Zn149  1  0.13709400  0.32720400  0.35747200  1
  Zn  Zn150  1  0.57687700  0.86541500  0.36532100  1
  Zn  Zn151  1  0.17552400  0.16891200  0.35866400  1
  Zn  Zn152  1  0.03680400  0.02884800  0.36472700  1
  Zn  Zn153  1  0.53360100  0.12570000  0.31423700  1
  Zn  Zn154  1  0.73237700  0.92256700  0.34286400  1
  Zn  Zn155  1  0.81738700  0.81472600  0.31907300  1
  Zn  Zn156  1  0.86290600  0.05248100  0.36980100  1
  Zn  Zn157  1  0.90034300  0.88620400  0.37130700  1
  Zn  Zn158  1  0.42312300  0.51426900  0.36195200  1
  Zn  Zn159  1  0.75046900  0.64080400  0.31783600  1
  Zn  Zn160  1  0.46639900  0.45398400  0.31303600  1
  Zn  Zn161  1  0.09965700  0.49348000  0.35596600  1
  Zn  Zn162  1  0.57676400  0.96386900  0.31590500  1
  Zn  Zn163  1  0.50000000  0.28984200  0.31363600  1
  Zn  Zn164  1  0.21546200  0.00296500  0.35851300  1
  Zn  Zn165  1  0.17499800  0.26915300  0.30929600  1
  Zn  Zn166  1  0.90216100  0.98703500  0.31957100  1
  Zn  Zn167  1  0.78453800  0.37672000  0.36876000  1
  Zn  Zn168  1  0.09783900  0.39264900  0.40770200  1
  Zn  Zn169  1  0.26762300  0.45711700  0.38440800  1
  Zn  Zn170  1  0.82500200  0.31053100  0.31797600  1
  Zn  Zn171  1  0.24831100  0.84103300  0.36040700  1
  Zn  Zn172  1  0.50000000  0.68984200  0.36363600  1
  Zn  Zn173  1  0.82447600  0.21077200  0.36860800  1
  Zn  Zn174  1  0.96319600  0.35083600  0.36254600  1
  Zn  Zn175  1  0.66285200  0.25005700  0.34032300  1
  Zn  Zn176  1  0.40771000  0.59621900  0.48584500  1
  Zn  Zn177  1  0.18261300  0.36495800  0.50820000  1
  Zn  Zn178  1  0.33714800  0.92962700  0.48694900  1
  Zn  Zn179  1  0.75168900  0.33865100  0.46686600  1
  Zn  Zn180  1  0.42323600  0.41581500  0.41136700  1
  Zn  Zn181  1  0.24953100  0.73888000  0.40943700  1
  Zn  Zn182  1  0.50000000  0.98984200  0.46363600  1
  Zn  Zn183  1  0.59229000  0.38346500  0.44142700  1
  Zn  Zn184  1  0.13709400  0.12720400  0.45747200  1
  Zn  Zn185  1  0.57687700  0.66541500  0.46532100  1
  Zn  Zn186  1  0.17552400  0.96891200  0.45866400  1
  Zn  Zn187  1  0.03680400  0.82884800  0.46472700  1
  Zn  Zn188  1  0.53360100  0.92570000  0.41423700  1
  Zn  Zn189  1  0.73237700  0.72256700  0.44286400  1
  Zn  Zn190  1  0.81738700  0.61472600  0.41907300  1
  Zn  Zn191  1  0.86290600  0.85248100  0.46980100  1
  Zn  Zn192  1  0.90034300  0.68620400  0.47130700  1
  Zn  Zn193  1  0.42312300  0.31426900  0.46195200  1
  Zn  Zn194  1  0.75046900  0.44080400  0.41783600  1
  Zn  Zn195  1  0.46639900  0.25398400  0.41303600  1
  Zn  Zn196  1  0.09965700  0.29348000  0.45596600  1
  Zn  Zn197  1  0.57676400  0.76386900  0.41590500  1
  Zn  Zn198  1  0.50000000  0.08984200  0.41363600  1
  Zn  Zn199  1  0.21546200  0.80296500  0.45851300  1
  Zn  Zn200  1  0.17499800  0.06915300  0.40929600  1
  Zn  Zn201  1  0.90216100  0.78703500  0.41957100  1
  Zn  Zn202  1  0.78453800  0.17672000  0.46876000  1
  Zn  Zn203  1  0.09783900  0.19264900  0.50770200  1
  Zn  Zn204  1  0.26762300  0.25711700  0.48440800  1
  Zn  Zn205  1  0.82500200  0.11053100  0.41797600  1
  Zn  Zn206  1  0.24831100  0.64103300  0.46040700  1
  Zn  Zn207  1  0.50000000  0.48984200  0.46363600  1
  Zn  Zn208  1  0.82447600  0.01077200  0.46860800  1
  Zn  Zn209  1  0.96319600  0.15083600  0.46254600  1
  Zn  Zn210  1  0.66285200  0.05005700  0.44032300  1
  Zn  Zn211  1  0.40771000  0.39621900  0.58584500  1
  Zn  Zn212  1  0.18261300  0.16495800  0.60820000  1
  Zn  Zn213  1  0.33714800  0.72962700  0.58694900  1
  Zn  Zn214  1  0.75168900  0.13865100  0.56686600  1
  Zn  Zn215  1  0.42323600  0.21581500  0.51136700  1
  Zn  Zn216  1  0.24953100  0.53888000  0.50943700  1
  Zn  Zn217  1  0.50000000  0.78984200  0.56363600  1
  Zn  Zn218  1  0.59229000  0.18346500  0.54142700  1
  Zn  Zn219  1  0.13709400  0.92720400  0.55747200  1
  Zn  Zn220  1  0.57687700  0.46541500  0.56532100  1
  Zn  Zn221  1  0.17552400  0.76891200  0.55866400  1
  Zn  Zn222  1  0.03680400  0.62884800  0.56472700  1
  Zn  Zn223  1  0.53360100  0.72570000  0.51423700  1
  Zn  Zn224  1  0.73237700  0.52256700  0.54286400  1
  Zn  Zn225  1  0.81738700  0.41472600  0.51907300  1
  Zn  Zn226  1  0.86290600  0.65248100  0.56980100  1
  Zn  Zn227  1  0.90034300  0.48620400  0.57130700  1
  Zn  Zn228  1  0.42312300  0.11426900  0.56195200  1
  Zn  Zn229  1  0.75046900  0.24080400  0.51783600  1
  Zn  Zn230  1  0.46639900  0.05398400  0.51303600  1
  Zn  Zn231  1  0.09965700  0.09348000  0.55596600  1
  Zn  Zn232  1  0.57676400  0.56386900  0.51590500  1
  Zn  Zn233  1  0.50000000  0.88984200  0.51363600  1
  Zn  Zn234  1  0.21546200  0.60296500  0.55851300  1
  Zn  Zn235  1  0.17499800  0.86915300  0.50929600  1
  Zn  Zn236  1  0.90216100  0.58703500  0.51957100  1
  Zn  Zn237  1  0.78453800  0.97672000  0.56876000  1
  Zn  Zn238  1  0.09783900  0.99264900  0.60770200  1
  Zn  Zn239  1  0.26762300  0.05711700  0.58440800  1
  Zn  Zn240  1  0.82500200  0.91053100  0.51797600  1
  Zn  Zn241  1  0.24831100  0.44103300  0.56040700  1
  Zn  Zn242  1  0.50000000  0.28984200  0.56363600  1
  Zn  Zn243  1  0.82447600  0.81077200  0.56860800  1
  Zn  Zn244  1  0.96319600  0.95083600  0.56254600  1
  Zn  Zn245  1  0.66285200  0.85005700  0.54032300  1
  Zn  Zn246  1  0.40771000  0.19621900  0.68584500  1
  Zn  Zn247  1  0.18261300  0.96495800  0.70820000  1
  Zn  Zn248  1  0.33714800  0.52962700  0.68694900  1
  Zn  Zn249  1  0.75168900  0.93865100  0.66686600  1
  Zn  Zn250  1  0.42323600  0.01581500  0.61136700  1
  Zn  Zn251  1  0.24953100  0.33888000  0.60943700  1
  Zn  Zn252  1  0.50000000  0.58984200  0.66363600  1
  Zn  Zn253  1  0.59229000  0.98346500  0.64142700  1
  Zn  Zn254  1  0.13709400  0.72720400  0.65747200  1
  Zn  Zn255  1  0.57687700  0.26541500  0.66532100  1
  Zn  Zn256  1  0.17552400  0.56891200  0.65866400  1
  Zn  Zn257  1  0.03680400  0.42884800  0.66472700  1
  Zn  Zn258  1  0.53360100  0.52570000  0.61423700  1
  Zn  Zn259  1  0.73237700  0.32256700  0.64286400  1
  Zn  Zn260  1  0.81738700  0.21472600  0.61907300  1
  Zn  Zn261  1  0.86290600  0.45248100  0.66980100  1
  Zn  Zn262  1  0.90034300  0.28620400  0.67130700  1
  Zn  Zn263  1  0.42312300  0.91426900  0.66195200  1
  Zn  Zn264  1  0.75046900  0.04080400  0.61783600  1
  Zn  Zn265  1  0.46639900  0.85398400  0.61303600  1
  Zn  Zn266  1  0.09965700  0.89348000  0.65596600  1
  Zn  Zn267  1  0.57676400  0.36386900  0.61590500  1
  Zn  Zn268  1  0.50000000  0.68984200  0.61363600  1
  Zn  Zn269  1  0.21546200  0.40296500  0.65851300  1
  Zn  Zn270  1  0.17499800  0.66915300  0.60929600  1
  Zn  Zn271  1  0.90216100  0.38703500  0.61957100  1
  Zn  Zn272  1  0.78453800  0.77672000  0.66876000  1
  Zn  Zn273  1  0.09783900  0.79264900  0.70770200  1
  Zn  Zn274  1  0.26762300  0.85711700  0.68440800  1
  Zn  Zn275  1  0.82500200  0.71053100  0.61797600  1
  Zn  Zn276  1  0.24831100  0.24103300  0.66040700  1
  Zn  Zn277  1  0.50000000  0.08984200  0.66363600  1
  Zn  Zn278  1  0.82447600  0.61077200  0.66860800  1
  Zn  Zn279  1  0.96319600  0.75083600  0.66254600  1
  Zn  Zn280  1  0.66285200  0.65005700  0.64032300  1
  Zn  Zn281  1  0.42323600  0.81581500  0.71136700  1
  Zn  Zn282  1  0.24953100  0.13888000  0.70943700  1
  Zn  Zn283  1  0.53360100  0.32570000  0.71423700  1
  Zn  Zn284  1  0.75046900  0.84080400  0.71783600  1
  Zn  Zn285  1  0.46639900  0.65398400  0.71303600  1
  Zn  Zn286  1  0.57676400  0.16386900  0.71590500  1
  Zn  Zn287  1  0.50000000  0.48984200  0.71363600  1
  Zn  Zn288  1  0.17499800  0.46915300  0.70929600  1
  Zn  Zn289  1  0.82500200  0.51053100  0.71797600  1
