# generated using pymatgen
data_Dy2Mg
_symmetry_space_group_name_H-M   'P 1'
_cell_length_a   3.69704700
_cell_length_b   17.95650481
_cell_length_c   41.98728100
_cell_angle_alpha   96.27093350
_cell_angle_beta   90.00000000
_cell_angle_gamma   90.00000000
_symmetry_Int_Tables_number   1
_chemical_formula_structural   Dy2Mg
_chemical_formula_sum   'Dy40 Mg20'
_cell_volume   2770.69117522
_cell_formula_units_Z   20
loop_
 _symmetry_equiv_pos_site_id
 _symmetry_equiv_pos_as_xyz
  1  'x, y, z'
loop_
 _atom_site_type_symbol
 _atom_site_label
 _atom_site_symmetry_multiplicity
 _atom_site_fract_x
 _atom_site_fract_y
 _atom_site_fract_z
 _atom_site_occupancy
  Dy  Dy0  1  0.50000000  0.91972400  0.19896800  1
  Dy  Dy1  1  1.00000000  0.76187900  0.22151700  1
  Dy  Dy2  1  0.00000000  0.70527600  0.30103200  1
  Dy  Dy3  1  0.50000000  0.86312100  0.27848300  1
  Dy  Dy4  1  0.00000000  0.48222400  0.26146800  1
  Dy  Dy5  1  0.50000000  0.32437900  0.28401700  1
  Dy  Dy6  1  0.50000000  0.14277600  0.23853200  1
  Dy  Dy7  1  1.00000000  0.30062100  0.21598300  1
  Dy  Dy8  1  0.50000000  0.04472400  0.32396800  1
  Dy  Dy9  1  0.00000000  0.88687900  0.34651700  1
  Dy  Dy10  1  0.00000000  0.83027600  0.42603200  1
  Dy  Dy11  1  0.50000000  0.98812100  0.40348300  1
  Dy  Dy12  1  0.00000000  0.60722400  0.38646800  1
  Dy  Dy13  1  0.50000000  0.44937900  0.40901700  1
  Dy  Dy14  1  0.50000000  0.26777600  0.36353200  1
  Dy  Dy15  1  0.00000000  0.42562100  0.34098300  1
  Dy  Dy16  1  0.50000000  0.16972400  0.44896800  1
  Dy  Dy17  1  1.00000000  0.01187900  0.47151700  1
  Dy  Dy18  1  0.00000000  0.95527600  0.55103200  1
  Dy  Dy19  1  0.50000000  0.11312100  0.52848300  1
  Dy  Dy20  1  0.00000000  0.73222400  0.51146800  1
  Dy  Dy21  1  0.50000000  0.57437900  0.53401700  1
  Dy  Dy22  1  0.50000000  0.39277600  0.48853200  1
  Dy  Dy23  1  0.00000000  0.55062100  0.46598300  1
  Dy  Dy24  1  0.50000000  0.29472400  0.57396800  1
  Dy  Dy25  1  0.00000000  0.13687900  0.59651700  1
  Dy  Dy26  1  1.00000000  0.08027600  0.67603200  1
  Dy  Dy27  1  0.50000000  0.23812100  0.65348300  1
  Dy  Dy28  1  0.00000000  0.85722400  0.63646800  1
  Dy  Dy29  1  0.50000000  0.69937900  0.65901700  1
  Dy  Dy30  1  0.50000000  0.51777600  0.61353200  1
  Dy  Dy31  1  0.00000000  0.67562100  0.59098300  1
  Dy  Dy32  1  0.50000000  0.41972400  0.69896800  1
  Dy  Dy33  1  1.00000000  0.26187900  0.72151700  1
  Dy  Dy34  1  0.00000000  0.20527600  0.80103200  1
  Dy  Dy35  1  0.50000000  0.36312100  0.77848300  1
  Dy  Dy36  1  0.00000000  0.98222400  0.76146800  1
  Dy  Dy37  1  0.50000000  0.82437900  0.78401700  1
  Dy  Dy38  1  0.50000000  0.64277600  0.73853200  1
  Dy  Dy39  1  0.00000000  0.80062100  0.71598300  1
  Mg  Mg40  1  0.50000000  0.62115700  0.24162000  1
  Mg  Mg41  1  0.00000000  0.00384300  0.25838000  1
  Mg  Mg42  1  0.00000000  0.18365700  0.30412000  1
  Mg  Mg43  1  0.50000000  0.44134300  0.19588000  1
  Mg  Mg44  1  0.50000000  0.74615700  0.36662000  1
  Mg  Mg45  1  1.00000000  0.12884300  0.38338000  1
  Mg  Mg46  1  0.00000000  0.30865700  0.42912000  1
  Mg  Mg47  1  0.50000000  0.56634300  0.32088000  1
  Mg  Mg48  1  0.50000000  0.87115700  0.49162000  1
  Mg  Mg49  1  0.00000000  0.25384300  0.50838000  1
  Mg  Mg50  1  0.00000000  0.43365700  0.55412000  1
  Mg  Mg51  1  0.50000000  0.69134300  0.44588000  1
  Mg  Mg52  1  0.50000000  0.99615700  0.61662000  1
  Mg  Mg53  1  0.00000000  0.37884300  0.63338000  1
  Mg  Mg54  1  1.00000000  0.55865700  0.67912000  1
  Mg  Mg55  1  0.50000000  0.81634300  0.57088000  1
  Mg  Mg56  1  0.50000000  0.12115700  0.74162000  1
  Mg  Mg57  1  1.00000000  0.50384300  0.75838000  1
  Mg  Mg58  1  1.00000000  0.68365700  0.80412000  1
  Mg  Mg59  1  0.50000000  0.94134300  0.69588000  1
