# generated using pymatgen
data_Mg11Pd23
_symmetry_space_group_name_H-M   'P 1'
_cell_length_a   4.19057600
_cell_length_b   9.87844226
_cell_length_c   45.88469700
_cell_angle_alpha   91.77467978
_cell_angle_beta   90.00000000
_cell_angle_gamma   90.00000000
_symmetry_Int_Tables_number   1
_chemical_formula_structural   Mg11Pd23
_chemical_formula_sum   'Mg22 Pd46'
_cell_volume   1898.54848723
_cell_formula_units_Z   2
loop_
 _symmetry_equiv_pos_site_id
 _symmetry_equiv_pos_as_xyz
  1  'x, y, z'
loop_
 _atom_site_type_symbol
 _atom_site_label
 _atom_site_symmetry_multiplicity
 _atom_site_fract_x
 _atom_site_fract_y
 _atom_site_fract_z
 _atom_site_occupancy
  Mg  Mg0  1  0.25000000  0.61634700  0.28997800  1
  Mg  Mg1  1  0.75000000  0.95276500  0.24335500  1
  Mg  Mg2  1  0.25000000  0.25393000  0.30963300  1
  Mg  Mg3  1  0.75000000  0.01518200  0.32370000  1
  Mg  Mg4  1  0.25000000  0.31634700  0.38997800  1
  Mg  Mg5  1  0.75000000  0.65276500  0.34335500  1
  Mg  Mg6  1  0.25000000  0.95393000  0.40963300  1
  Mg  Mg7  1  0.75000000  0.71518200  0.42370000  1
  Mg  Mg8  1  0.25000000  0.01634700  0.48997800  1
  Mg  Mg9  1  0.75000000  0.35276500  0.44335500  1
  Mg  Mg10  1  0.25000000  0.65393000  0.50963300  1
  Mg  Mg11  1  0.75000000  0.41518200  0.52370000  1
  Mg  Mg12  1  0.25000000  0.71634700  0.58997800  1
  Mg  Mg13  1  0.75000000  0.05276500  0.54335500  1
  Mg  Mg14  1  0.25000000  0.35393000  0.60963300  1
  Mg  Mg15  1  0.75000000  0.11518200  0.62370000  1
  Mg  Mg16  1  0.25000000  0.41634700  0.68997800  1
  Mg  Mg17  1  0.75000000  0.75276500  0.64335500  1
  Mg  Mg18  1  0.25000000  0.05393000  0.70963300  1
  Mg  Mg19  1  0.75000000  0.81518200  0.72370000  1
  Mg  Mg20  1  0.25000000  0.11634700  0.78997800  1
  Mg  Mg21  1  0.75000000  0.45276500  0.74335500  1
  Pd  Pd22  1  0.25000000  0.78139100  0.24351500  1
  Pd  Pd23  1  0.75000000  0.78772100  0.28981900  1
  Pd  Pd24  1  0.25000000  0.38306100  0.25803900  1
  Pd  Pd25  1  0.75000000  0.18605200  0.27529500  1
  Pd  Pd26  1  0.25000000  0.98985800  0.28627100  1
  Pd  Pd27  1  0.75000000  0.57925500  0.24706300  1
  Pd  Pd28  1  0.25000000  0.48139100  0.34351500  1
  Pd  Pd29  1  0.75000000  0.48772100  0.38981900  1
  Pd  Pd30  1  0.25000000  0.08306100  0.35803900  1
  Pd  Pd31  1  0.75000000  0.88605200  0.37529500  1
  Pd  Pd32  1  0.25000000  0.68985800  0.38627100  1
  Pd  Pd33  1  0.75000000  0.27925500  0.34706300  1
  Pd  Pd34  1  0.25000000  0.82009900  0.33344800  1
  Pd  Pd35  1  0.75000000  0.44901300  0.29988500  1
  Pd  Pd36  1  0.25000000  0.18139100  0.44351500  1
  Pd  Pd37  1  0.75000000  0.18772100  0.48981900  1
  Pd  Pd38  1  0.25000000  0.78306100  0.45803900  1
  Pd  Pd39  1  0.75000000  0.58605200  0.47529500  1
  Pd  Pd40  1  0.25000000  0.38985800  0.48627100  1
  Pd  Pd41  1  0.75000000  0.97925500  0.44706300  1
  Pd  Pd42  1  0.25000000  0.52009900  0.43344800  1
  Pd  Pd43  1  0.75000000  0.14901300  0.39988500  1
  Pd  Pd44  1  0.25000000  0.88139100  0.54351500  1
  Pd  Pd45  1  0.75000000  0.88772100  0.58981900  1
  Pd  Pd46  1  0.25000000  0.48306100  0.55803900  1
  Pd  Pd47  1  0.75000000  0.28605200  0.57529500  1
  Pd  Pd48  1  0.25000000  0.08985800  0.58627100  1
  Pd  Pd49  1  0.75000000  0.67925500  0.54706300  1
  Pd  Pd50  1  0.25000000  0.22009900  0.53344800  1
  Pd  Pd51  1  0.75000000  0.84901300  0.49988500  1
  Pd  Pd52  1  0.25000000  0.58139100  0.64351500  1
  Pd  Pd53  1  0.75000000  0.58772100  0.68981900  1
  Pd  Pd54  1  0.25000000  0.18306100  0.65803900  1
  Pd  Pd55  1  0.75000000  0.98605200  0.67529500  1
  Pd  Pd56  1  0.25000000  0.78985800  0.68627100  1
  Pd  Pd57  1  0.75000000  0.37925500  0.64706300  1
  Pd  Pd58  1  0.25000000  0.92009900  0.63344800  1
  Pd  Pd59  1  0.75000000  0.54901300  0.59988500  1
  Pd  Pd60  1  0.25000000  0.28139100  0.74351500  1
  Pd  Pd61  1  0.75000000  0.28772100  0.78981900  1
  Pd  Pd62  1  0.25000000  0.88306100  0.75803900  1
  Pd  Pd63  1  0.75000000  0.68605200  0.77529500  1
  Pd  Pd64  1  0.25000000  0.48985800  0.78627100  1
  Pd  Pd65  1  0.75000000  0.07925500  0.74706300  1
  Pd  Pd66  1  0.25000000  0.62009900  0.73344800  1
  Pd  Pd67  1  0.75000000  0.24901300  0.69988500  1
