# generated using pymatgen
data_Mg2Ir3
_symmetry_space_group_name_H-M   'P 1'
_cell_length_a   8.54477469
_cell_length_b   9.72091536
_cell_length_c   40.45091800
_cell_angle_alpha   92.27818184
_cell_angle_beta   91.63073542
_cell_angle_gamma   96.80090534
_symmetry_Int_Tables_number   1
_chemical_formula_structural   Mg2Ir3
_chemical_formula_sum   'Mg50 Ir75'
_cell_volume   3331.83388964
_cell_formula_units_Z   25
loop_
 _symmetry_equiv_pos_site_id
 _symmetry_equiv_pos_as_xyz
  1  'x, y, z'
loop_
 _atom_site_type_symbol
 _atom_site_label
 _atom_site_symmetry_multiplicity
 _atom_site_fract_x
 _atom_site_fract_y
 _atom_site_fract_z
 _atom_site_occupancy
  Mg  Mg0  1  0.91533800  0.34974600  0.71498300  1
  Mg  Mg1  1  0.08466200  0.40025400  0.78501700  1
  Mg  Mg2  1  0.61669600  0.71018700  0.80567900  1
  Mg  Mg3  1  0.38330400  0.03981300  0.69432100  1
  Mg  Mg4  1  0.55549200  0.32982500  0.71365500  1
  Mg  Mg5  1  0.44450800  0.42017500  0.78634500  1
  Mg  Mg6  1  0.99788700  0.08318800  0.69721300  1
  Mg  Mg7  1  0.00211300  0.66681200  0.80278700  1
  Mg  Mg8  1  0.81855800  0.83556500  0.74737100  1
  Mg  Mg9  1  0.18144200  0.91443500  0.75262900  1
  Mg  Mg10  1  0.91533800  0.47474600  0.58998300  1
  Mg  Mg11  1  0.08466200  0.52525400  0.66001700  1
  Mg  Mg12  1  0.61669600  0.83518700  0.68067900  1
  Mg  Mg13  1  0.38330400  0.16481300  0.56932100  1
  Mg  Mg14  1  0.55549200  0.45482500  0.58865500  1
  Mg  Mg15  1  0.44450800  0.54517500  0.66134500  1
  Mg  Mg16  1  0.99788700  0.20818800  0.57221300  1
  Mg  Mg17  1  0.00211300  0.79181200  0.67778700  1
  Mg  Mg18  1  0.81855800  0.96056500  0.62237100  1
  Mg  Mg19  1  0.18144200  0.03943500  0.62762900  1
  Mg  Mg20  1  0.91533800  0.59974600  0.46498300  1
  Mg  Mg21  1  0.08466200  0.65025400  0.53501700  1
  Mg  Mg22  1  0.61669600  0.96018700  0.55567900  1
  Mg  Mg23  1  0.38330400  0.28981300  0.44432100  1
  Mg  Mg24  1  0.55549200  0.57982500  0.46365500  1
  Mg  Mg25  1  0.44450800  0.67017500  0.53634500  1
  Mg  Mg26  1  0.99788700  0.33318800  0.44721300  1
  Mg  Mg27  1  0.00211300  0.91681200  0.55278700  1
  Mg  Mg28  1  0.81855800  0.08556500  0.49737100  1
  Mg  Mg29  1  0.18144200  0.16443500  0.50262900  1
  Mg  Mg30  1  0.91533800  0.72474600  0.33998300  1
  Mg  Mg31  1  0.08466200  0.77525400  0.41001700  1
  Mg  Mg32  1  0.61669600  0.08518700  0.43067900  1
  Mg  Mg33  1  0.38330400  0.41481300  0.31932100  1
  Mg  Mg34  1  0.55549200  0.70482500  0.33865500  1
  Mg  Mg35  1  0.44450800  0.79517500  0.41134500  1
  Mg  Mg36  1  0.99788700  0.45818800  0.32221300  1
  Mg  Mg37  1  0.00211300  0.04181200  0.42778700  1
  Mg  Mg38  1  0.81855800  0.21056500  0.37237100  1
  Mg  Mg39  1  0.18144200  0.28943500  0.37762900  1
  Mg  Mg40  1  0.91533800  0.84974600  0.21498300  1
  Mg  Mg41  1  0.08466200  0.90025400  0.28501700  1
  Mg  Mg42  1  0.61669600  0.21018700  0.30567900  1
  Mg  Mg43  1  0.38330400  0.53981300  0.19432100  1
  Mg  Mg44  1  0.55549200  0.82982500  0.21365500  1
  Mg  Mg45  1  0.44450800  0.92017500  0.28634500  1
  Mg  Mg46  1  0.99788700  0.58318800  0.19721300  1
  Mg  Mg47  1  0.00211300  0.16681200  0.30278700  1
  Mg  Mg48  1  0.81855800  0.33556500  0.24737100  1
  Mg  Mg49  1  0.18144200  0.41443500  0.25262900  1
  Ir  Ir50  1  0.97167900  0.12085300  0.76639000  1
  Ir  Ir51  1  0.02832100  0.62914700  0.73361000  1
  Ir  Ir52  1  0.77047200  0.59141700  0.69769600  1
  Ir  Ir53  1  0.22952800  0.15858300  0.80230400  1
  Ir  Ir54  1  0.22952800  0.22120500  0.73968200  1
  Ir  Ir55  1  0.77047200  0.52879500  0.76031800  1
  Ir  Ir56  1  0.50000000  0.87500000  0.75000000  1
  Ir  Ir57  1  0.25697700  0.47006800  0.72300500  1
  Ir  Ir58  1  0.74302300  0.27993200  0.77699500  1
  Ir  Ir59  1  0.53311500  0.62032200  0.73302100  1
  Ir  Ir60  1  0.46688500  0.12967800  0.76697900  1
  Ir  Ir61  1  0.70409300  0.01193200  0.79460400  1
  Ir  Ir62  1  0.29590700  0.73806800  0.70539600  1
  Ir  Ir63  1  0.29590700  0.67155300  0.77191200  1
  Ir  Ir64  1  0.70409300  0.07844700  0.72808800  1
  Ir  Ir65  1  0.97167900  0.24585300  0.64139000  1
  Ir  Ir66  1  0.02832100  0.75414700  0.60861000  1
  Ir  Ir67  1  0.77047200  0.71641700  0.57269600  1
  Ir  Ir68  1  0.22952800  0.28358300  0.67730400  1
  Ir  Ir69  1  0.22952800  0.34620500  0.61468200  1
  Ir  Ir70  1  0.77047200  0.65379500  0.63531800  1
  Ir  Ir71  1  0.50000000  0.00000000  0.62500000  1
  Ir  Ir72  1  0.25697700  0.59506800  0.59800500  1
  Ir  Ir73  1  0.74302300  0.40493200  0.65199500  1
  Ir  Ir74  1  0.53311500  0.74532200  0.60802100  1
  Ir  Ir75  1  0.46688500  0.25467800  0.64197900  1
  Ir  Ir76  1  0.70409300  0.13693200  0.66960400  1
  Ir  Ir77  1  0.29590700  0.86306800  0.58039600  1
  Ir  Ir78  1  0.29590700  0.79655300  0.64691200  1
  Ir  Ir79  1  0.70409300  0.20344700  0.60308800  1
  Ir  Ir80  1  0.97167900  0.37085300  0.51639000  1
  Ir  Ir81  1  0.02832100  0.87914700  0.48361000  1
  Ir  Ir82  1  0.77047200  0.84141700  0.44769600  1
  Ir  Ir83  1  0.22952800  0.40858300  0.55230400  1
  Ir  Ir84  1  0.22952800  0.47120500  0.48968200  1
  Ir  Ir85  1  0.77047200  0.77879500  0.51031800  1
  Ir  Ir86  1  0.50000000  0.12500000  0.50000000  1
  Ir  Ir87  1  0.25697700  0.72006800  0.47300500  1
  Ir  Ir88  1  0.74302300  0.52993200  0.52699500  1
  Ir  Ir89  1  0.53311500  0.87032200  0.48302100  1
  Ir  Ir90  1  0.46688500  0.37967800  0.51697900  1
  Ir  Ir91  1  0.70409300  0.26193200  0.54460400  1
  Ir  Ir92  1  0.29590700  0.98806800  0.45539600  1
  Ir  Ir93  1  0.29590700  0.92155300  0.52191200  1
  Ir  Ir94  1  0.70409300  0.32844700  0.47808800  1
  Ir  Ir95  1  0.97167900  0.49585300  0.39139000  1
  Ir  Ir96  1  0.02832100  0.00414700  0.35861000  1
  Ir  Ir97  1  0.77047200  0.96641700  0.32269600  1
  Ir  Ir98  1  0.22952800  0.53358300  0.42730400  1
  Ir  Ir99  1  0.22952800  0.59620500  0.36468200  1
  Ir  Ir100  1  0.77047200  0.90379500  0.38531800  1
  Ir  Ir101  1  0.50000000  0.25000000  0.37500000  1
  Ir  Ir102  1  0.25697700  0.84506800  0.34800500  1
  Ir  Ir103  1  0.74302300  0.65493200  0.40199500  1
  Ir  Ir104  1  0.53311500  0.99532200  0.35802100  1
  Ir  Ir105  1  0.46688500  0.50467800  0.39197900  1
  Ir  Ir106  1  0.70409300  0.38693200  0.41960400  1
  Ir  Ir107  1  0.29590700  0.11306800  0.33039600  1
  Ir  Ir108  1  0.29590700  0.04655300  0.39691200  1
  Ir  Ir109  1  0.70409300  0.45344700  0.35308800  1
  Ir  Ir110  1  0.97167900  0.62085300  0.26639000  1
  Ir  Ir111  1  0.02832100  0.12914700  0.23361000  1
  Ir  Ir112  1  0.77047200  0.09141700  0.19769600  1
  Ir  Ir113  1  0.22952800  0.65858300  0.30230400  1
  Ir  Ir114  1  0.22952800  0.72120500  0.23968200  1
  Ir  Ir115  1  0.77047200  0.02879500  0.26031800  1
  Ir  Ir116  1  0.50000000  0.37500000  0.25000000  1
  Ir  Ir117  1  0.25697700  0.97006800  0.22300500  1
  Ir  Ir118  1  0.74302300  0.77993200  0.27699500  1
  Ir  Ir119  1  0.53311500  0.12032200  0.23302100  1
  Ir  Ir120  1  0.46688500  0.62967800  0.26697900  1
  Ir  Ir121  1  0.70409300  0.51193200  0.29460400  1
  Ir  Ir122  1  0.29590700  0.23806800  0.20539600  1
  Ir  Ir123  1  0.29590700  0.17155300  0.27191200  1
  Ir  Ir124  1  0.70409300  0.57844700  0.22808800  1
