# generated using pymatgen
data_Mg3Hg
_symmetry_space_group_name_H-M   'P 1'
_cell_length_a   8.04033670
_cell_length_b   8.04033699
_cell_length_c   42.74352300
_cell_angle_alpha   86.85720077
_cell_angle_beta   93.14279934
_cell_angle_gamma   94.61169238
_symmetry_Int_Tables_number   1
_chemical_formula_structural   Mg3Hg
_chemical_formula_sum   'Mg60 Hg20'
_cell_volume   2746.62191188
_cell_formula_units_Z   20
loop_
 _symmetry_equiv_pos_site_id
 _symmetry_equiv_pos_as_xyz
  1  'x, y, z'
loop_
 _atom_site_type_symbol
 _atom_site_label
 _atom_site_symmetry_multiplicity
 _atom_site_fract_x
 _atom_site_fract_y
 _atom_site_fract_z
 _atom_site_occupancy
  Mg  Mg0  1  0.75871700  0.07267400  0.20348900  1
  Mg  Mg1  1  0.26017400  0.57121700  0.20276100  1
  Mg  Mg2  1  0.44986000  0.88736000  0.23437500  1
  Mg  Mg3  1  0.92514000  0.73764000  0.20312500  1
  Mg  Mg4  1  0.11482600  0.05378300  0.23473900  1
  Mg  Mg5  1  0.61628300  0.55232600  0.23401100  1
  Mg  Mg6  1  0.13371700  0.69767400  0.26598900  1
  Mg  Mg7  1  0.63517400  0.19621700  0.26526100  1
  Mg  Mg8  1  0.82486000  0.51236000  0.29687500  1
  Mg  Mg9  1  0.30014000  0.36264000  0.26562500  1
  Mg  Mg10  1  0.48982600  0.67878300  0.29723900  1
  Mg  Mg11  1  0.99128300  0.17732600  0.29651100  1
  Mg  Mg12  1  0.50871700  0.32267400  0.32848900  1
  Mg  Mg13  1  0.01017400  0.82121700  0.32776100  1
  Mg  Mg14  1  0.19986000  0.13736000  0.35937500  1
  Mg  Mg15  1  0.67514000  0.98764000  0.32812500  1
  Mg  Mg16  1  0.86482600  0.30378300  0.35973900  1
  Mg  Mg17  1  0.36628300  0.80232600  0.35901100  1
  Mg  Mg18  1  0.88371700  0.94767400  0.39098900  1
  Mg  Mg19  1  0.38517400  0.44621700  0.39026100  1
  Mg  Mg20  1  0.57486000  0.76236000  0.42187500  1
  Mg  Mg21  1  0.05014000  0.61264000  0.39062500  1
  Mg  Mg22  1  0.23982600  0.92878300  0.42223900  1
  Mg  Mg23  1  0.74128300  0.42732600  0.42151100  1
  Mg  Mg24  1  0.25871700  0.57267400  0.45348900  1
  Mg  Mg25  1  0.76017400  0.07121700  0.45276100  1
  Mg  Mg26  1  0.94986000  0.38736000  0.48437500  1
  Mg  Mg27  1  0.42514000  0.23764000  0.45312500  1
  Mg  Mg28  1  0.61482600  0.55378300  0.48473900  1
  Mg  Mg29  1  0.11628300  0.05232600  0.48401100  1
  Mg  Mg30  1  0.63371700  0.19767400  0.51598900  1
  Mg  Mg31  1  0.13517400  0.69621700  0.51526100  1
  Mg  Mg32  1  0.32486000  0.01236000  0.54687500  1
  Mg  Mg33  1  0.80014000  0.86264000  0.51562500  1
  Mg  Mg34  1  0.98982600  0.17878300  0.54723900  1
  Mg  Mg35  1  0.49128300  0.67732600  0.54651100  1
  Mg  Mg36  1  0.00871700  0.82267400  0.57848900  1
  Mg  Mg37  1  0.51017400  0.32121700  0.57776100  1
  Mg  Mg38  1  0.69986000  0.63736000  0.60937500  1
  Mg  Mg39  1  0.17514000  0.48764000  0.57812500  1
  Mg  Mg40  1  0.36482600  0.80378300  0.60973900  1
  Mg  Mg41  1  0.86628300  0.30232600  0.60901100  1
  Mg  Mg42  1  0.38371700  0.44767400  0.64098900  1
  Mg  Mg43  1  0.88517400  0.94621700  0.64026100  1
  Mg  Mg44  1  0.07486000  0.26236000  0.67187500  1
  Mg  Mg45  1  0.55014000  0.11264000  0.64062500  1
  Mg  Mg46  1  0.73982600  0.42878300  0.67223900  1
  Mg  Mg47  1  0.24128300  0.92732600  0.67151100  1
  Mg  Mg48  1  0.75871700  0.07267400  0.70348900  1
  Mg  Mg49  1  0.26017400  0.57121700  0.70276100  1
  Mg  Mg50  1  0.44986000  0.88736000  0.73437500  1
  Mg  Mg51  1  0.92514000  0.73764000  0.70312500  1
  Mg  Mg52  1  0.11482600  0.05378300  0.73473900  1
  Mg  Mg53  1  0.61628300  0.55232600  0.73401100  1
  Mg  Mg54  1  0.13371700  0.69767400  0.76598900  1
  Mg  Mg55  1  0.63517400  0.19621700  0.76526100  1
  Mg  Mg56  1  0.82486000  0.51236000  0.79687500  1
  Mg  Mg57  1  0.30014000  0.36264000  0.76562500  1
  Mg  Mg58  1  0.48982600  0.67878300  0.79723900  1
  Mg  Mg59  1  0.99128300  0.17732600  0.79651100  1
  Hg  Hg60  1  0.94791700  0.38541700  0.23437500  1
  Hg  Hg61  1  0.42708300  0.23958300  0.20312500  1
  Hg  Hg62  1  0.32291700  0.01041700  0.29687500  1
  Hg  Hg63  1  0.80208300  0.86458300  0.26562500  1
  Hg  Hg64  1  0.69791700  0.63541700  0.35937500  1
  Hg  Hg65  1  0.17708300  0.48958300  0.32812500  1
  Hg  Hg66  1  0.07291700  0.26041700  0.42187500  1
  Hg  Hg67  1  0.55208300  0.11458300  0.39062500  1
  Hg  Hg68  1  0.44791700  0.88541700  0.48437500  1
  Hg  Hg69  1  0.92708300  0.73958300  0.45312500  1
  Hg  Hg70  1  0.82291700  0.51041700  0.54687500  1
  Hg  Hg71  1  0.30208300  0.36458300  0.51562500  1
  Hg  Hg72  1  0.19791700  0.13541700  0.60937500  1
  Hg  Hg73  1  0.67708300  0.98958300  0.57812500  1
  Hg  Hg74  1  0.57291700  0.76041700  0.67187500  1
  Hg  Hg75  1  0.05208300  0.61458300  0.64062500  1
  Hg  Hg76  1  0.94791700  0.38541700  0.73437500  1
  Hg  Hg77  1  0.42708300  0.23958300  0.70312500  1
  Hg  Hg78  1  0.32291700  0.01041700  0.79687500  1
  Hg  Hg79  1  0.80208300  0.86458300  0.76562500  1
