# generated using pymatgen
data_Mg3As2
_symmetry_space_group_name_H-M   'P 1'
_cell_length_a   17.64245218
_cell_length_b   17.64245173
_cell_length_c   51.43614400
_cell_angle_alpha   90.00000000
_cell_angle_beta   80.12503724
_cell_angle_gamma   60.00000132
_symmetry_Int_Tables_number   1
_chemical_formula_structural   Mg3As2
_chemical_formula_sum   'Mg192 As128'
_cell_volume   13590.32609305
_cell_formula_units_Z   64
loop_
 _symmetry_equiv_pos_site_id
 _symmetry_equiv_pos_as_xyz
  1  'x, y, z'
loop_
 _atom_site_type_symbol
 _atom_site_label
 _atom_site_symmetry_multiplicity
 _atom_site_fract_x
 _atom_site_fract_y
 _atom_site_fract_z
 _atom_site_occupancy
  Mg  Mg0  1  0.70796500  0.28635700  0.26854400  1
  Mg  Mg1  1  0.71573800  0.50179200  0.26595300  1
  Mg  Mg2  1  0.73928700  0.63489100  0.34427700  1
  Mg  Mg3  1  0.98080300  0.76740500  0.26595300  1
  Mg  Mg4  1  0.51781300  0.61282100  0.33997300  1
  Mg  Mg5  1  0.95573400  0.26460000  0.26408300  1
  Mg  Mg6  1  0.50051700  0.38680800  0.33551200  1
  Mg  Mg7  1  0.73583900  0.38961300  0.33738200  1
  Mg  Mg8  1  0.46011700  0.51213500  0.27284800  1
  Mg  Mg9  1  0.50490000  0.87582200  0.34427700  1
  Mg  Mg10  1  0.20142000  0.76222300  0.26854400  1
  Mg  Mg11  1  0.97986800  0.00553100  0.26408300  1
  Mg  Mg12  1  0.36346400  0.92792900  0.30288400  1
  Mg  Mg13  1  0.35569100  0.71249400  0.30547600  1
  Mg  Mg14  1  0.33214200  0.57939400  0.22715200  1
  Mg  Mg15  1  0.09062600  0.44688000  0.30547600  1
  Mg  Mg16  1  0.09156000  0.20875400  0.30734500  1
  Mg  Mg17  1  0.87000800  0.45206300  0.30288400  1
  Mg  Mg18  1  0.56652900  0.33846300  0.22715200  1
  Mg  Mg19  1  0.61131200  0.70215100  0.29858000  1
  Mg  Mg20  1  0.33559000  0.82467300  0.23404700  1
  Mg  Mg21  1  0.57091100  0.82747700  0.23591700  1
  Mg  Mg22  1  0.11569400  0.94968500  0.30734500  1
  Mg  Mg23  1  0.55361600  0.60146400  0.23145600  1
  Mg  Mg24  1  0.99367900  0.64350000  0.33997300  1
  Mg  Mg25  1  0.00145200  0.85893500  0.33738200  1
  Mg  Mg26  1  0.45357200  0.27774800  0.27284800  1
  Mg  Mg27  1  0.26651700  0.12454800  0.33738200  1
  Mg  Mg28  1  0.23209900  0.25567800  0.26854400  1
  Mg  Mg29  1  0.24144800  0.62174300  0.33551200  1
  Mg  Mg30  1  0.21480300  0.02966500  0.26408300  1
  Mg  Mg31  1  0.45012500  0.03247000  0.26595300  1
  Mg  Mg32  1  0.74583100  0.86927800  0.34427700  1
  Mg  Mg33  1  0.21918600  0.51867900  0.27284800  1
  Mg  Mg34  1  0.48713400  0.11936600  0.33997300  1
  Mg  Mg35  1  0.26558200  0.36267400  0.33551200  1
  Mg  Mg36  1  0.07775000  0.57078600  0.23145600  1
  Mg  Mg37  1  0.06997600  0.35535100  0.23404700  1
  Mg  Mg38  1  0.61785600  0.93653700  0.29858000  1
  Mg  Mg39  1  0.80491100  0.08973800  0.23404700  1
  Mg  Mg40  1  0.80584600  0.85161100  0.23591700  1
  Mg  Mg41  1  0.58429400  0.09492000  0.23145600  1
  Mg  Mg42  1  0.85224300  0.69560600  0.29858000  1
  Mg  Mg43  1  0.32559800  0.34500800  0.22715200  1
  Mg  Mg44  1  0.62130400  0.18181500  0.30547600  1
  Mg  Mg45  1  0.85662600  0.18462000  0.30734500  1
  Mg  Mg46  1  0.82998000  0.59254200  0.23591700  1
  Mg  Mg47  1  0.83933000  0.95860700  0.30288400  1
  Mg  Mg48  1  0.27939300  0.00064300  0.41140100  1
  Mg  Mg49  1  0.28716700  0.21607700  0.40881000  1
  Mg  Mg50  1  0.31071500  0.34917700  0.48713400  1
  Mg  Mg51  1  0.55223200  0.48169100  0.40881000  1
  Mg  Mg52  1  0.08924100  0.32710700  0.48283000  1
  Mg  Mg53  1  0.52716300  0.97888600  0.40694000  1
  Mg  Mg54  1  0.07194600  0.10109400  0.47836900  1
  Mg  Mg55  1  0.30726700  0.10389900  0.48023900  1
  Mg  Mg56  1  0.03154500  0.22642100  0.41570600  1
  Mg  Mg57  1  0.07632900  0.59010800  0.48713400  1
  Mg  Mg58  1  0.77284900  0.47650900  0.41140100  1
  Mg  Mg59  1  0.55129700  0.71981700  0.40694000  1
  Mg  Mg60  1  0.93489300  0.64221400  0.44574200  1
  Mg  Mg61  1  0.92711900  0.42678000  0.44833300  1
  Mg  Mg62  1  0.90357100  0.29368000  0.37000900  1
  Mg  Mg63  1  0.66205400  0.16116600  0.44833300  1
  Mg  Mg64  1  0.66298900  0.92304000  0.45020300  1
  Mg  Mg65  1  0.44143700  0.16634800  0.44574200  1
  Mg  Mg66  1  0.13795700  0.05274900  0.37000900  1
  Mg  Mg67  1  0.18274000  0.41643700  0.44143700  1
  Mg  Mg68  1  0.90701800  0.53895800  0.37690400  1
  Mg  Mg69  1  0.14234000  0.54176300  0.37877400  1
  Mg  Mg70  1  0.68712300  0.66397100  0.45020300  1
  Mg  Mg71  1  0.12504400  0.31575000  0.37431300  1
  Mg  Mg72  1  0.56510700  0.35778600  0.48283000  1
  Mg  Mg73  1  0.57288100  0.57322000  0.48023900  1
  Mg  Mg74  1  0.02500100  0.99203400  0.41570600  1
  Mg  Mg75  1  0.83794600  0.83883400  0.48023900  1
  Mg  Mg76  1  0.80352700  0.96996400  0.41140100  1
  Mg  Mg77  1  0.81287700  0.33602900  0.47836900  1
  Mg  Mg78  1  0.78623200  0.74395100  0.40694000  1
  Mg  Mg79  1  0.02155300  0.74675600  0.40881000  1
  Mg  Mg80  1  0.31726000  0.58356300  0.48713400  1
  Mg  Mg81  1  0.79061400  0.23296500  0.41570600  1
  Mg  Mg82  1  0.05856300  0.83365200  0.48283000  1
  Mg  Mg83  1  0.83701100  0.07696000  0.47836900  1
  Mg  Mg84  1  0.64917800  0.28507200  0.37431300  1
  Mg  Mg85  1  0.64140500  0.06963700  0.37690400  1
  Mg  Mg86  1  0.18928500  0.65082300  0.44143700  1
  Mg  Mg87  1  0.37634000  0.80402300  0.37690400  1
  Mg  Mg88  1  0.37727500  0.56589700  0.37877400  1
  Mg  Mg89  1  0.15572300  0.80920600  0.37431300  1
  Mg  Mg90  1  0.42367100  0.40989200  0.44143700  1
  Mg  Mg91  1  0.89702600  0.05929400  0.37000900  1
  Mg  Mg92  1  0.19273300  0.89610100  0.44833300  1
  Mg  Mg93  1  0.42805400  0.89890600  0.45020300  1
  Mg  Mg94  1  0.40140900  0.30682800  0.37877400  1
  Mg  Mg95  1  0.41075900  0.67289300  0.44574200  1
  Mg  Mg96  1  0.85082200  0.71492800  0.55425800  1
  Mg  Mg97  1  0.85859500  0.93036300  0.55166700  1
  Mg  Mg98  1  0.88214400  0.06346300  0.62999100  1
  Mg  Mg99  1  0.12366000  0.19597700  0.55166700  1
  Mg  Mg100  1  0.66067000  0.04139300  0.62568700  1
  Mg  Mg101  1  0.09859100  0.69317200  0.54979700  1
  Mg  Mg102  1  0.64337400  0.81538000  0.62122600  1
  Mg  Mg103  1  0.87869600  0.81818500  0.62309600  1
  Mg  Mg104  1  0.60297400  0.94070600  0.55856300  1
  Mg  Mg105  1  0.64775700  0.30439400  0.62999100  1
  Mg  Mg106  1  0.34427700  0.19079400  0.55425800  1
  Mg  Mg107  1  0.12272500  0.43410300  0.54979700  1
  Mg  Mg108  1  0.50632100  0.35650000  0.58859900  1
  Mg  Mg109  1  0.49854800  0.14106500  0.59119000  1
  Mg  Mg110  1  0.47499900  0.00796600  0.51286600  1
  Mg  Mg111  1  0.23348300  0.87545200  0.59119000  1
  Mg  Mg112  1  0.23441800  0.63732600  0.59306000  1
  Mg  Mg113  1  0.01286600  0.88063400  0.58859900  1
  Mg  Mg114  1  0.70938600  0.76703500  0.51286600  1
  Mg  Mg115  1  0.75416900  0.13072200  0.58429400  1
  Mg  Mg116  1  0.47844700  0.25324400  0.51976100  1
  Mg  Mg117  1  0.71376800  0.25604900  0.52163100  1
  Mg  Mg118  1  0.25855200  0.37825700  0.59306000  1
  Mg  Mg119  1  0.69647300  0.03003600  0.51717000  1
  Mg  Mg120  1  0.13653600  0.07207100  0.62568700  1
  Mg  Mg121  1  0.14430900  0.28750600  0.62309600  1
  Mg  Mg122  1  0.59642900  0.70632000  0.55856300  1
  Mg  Mg123  1  0.40937400  0.55312000  0.62309600  1
  Mg  Mg124  1  0.37495600  0.68425000  0.55425800  1
  Mg  Mg125  1  0.38430600  0.05031500  0.62122600  1
  Mg  Mg126  1  0.35766000  0.45823700  0.54979700  1
  Mg  Mg127  1  0.59298200  0.46104200  0.55166700  1
  Mg  Mg128  1  0.88868800  0.29784900  0.62999100  1
  Mg  Mg129  1  0.36204300  0.94725100  0.55856300  1
  Mg  Mg130  1  0.62999200  0.54793700  0.62568700  1
  Mg  Mg131  1  0.40844000  0.79124600  0.62122600  1
  Mg  Mg132  1  0.22060700  0.99935700  0.51717000  1
  Mg  Mg133  1  0.21283300  0.78392300  0.51976100  1
  Mg  Mg134  1  0.76071300  0.36510900  0.58429400  1
  Mg  Mg135  1  0.94776800  0.51830900  0.51976100  1
  Mg  Mg136  1  0.94870300  0.28018300  0.52163100  1
  Mg  Mg137  1  0.72715100  0.52349100  0.51717000  1
  Mg  Mg138  1  0.99510000  0.12417800  0.58429400  1
  Mg  Mg139  1  0.46845500  0.77357900  0.51286600  1
  Mg  Mg140  1  0.76416100  0.61038700  0.59119000  1
  Mg  Mg141  1  0.99948300  0.61319200  0.59306000  1
  Mg  Mg142  1  0.97283700  0.02111400  0.52163100  1
  Mg  Mg143  1  0.98218700  0.38717900  0.58859900  1
  Mg  Mg144  1  0.42225000  0.42921400  0.69711600  1
  Mg  Mg145  1  0.43002400  0.64464900  0.69452400  1
  Mg  Mg146  1  0.45357200  0.77774800  0.77284800  1
  Mg  Mg147  1  0.69508900  0.91026200  0.69452400  1
  Mg  Mg148  1  0.23209900  0.75567800  0.76854400  1
  Mg  Mg149  1  0.67002000  0.40745800  0.69265500  1
  Mg  Mg150  1  0.21480300  0.52966500  0.76408300  1
  Mg  Mg151  1  0.45012500  0.53247000  0.76595300  1
  Mg  Mg152  1  0.17440200  0.65499200  0.70142000  1
  Mg  Mg153  1  0.21918600  0.01867900  0.77284800  1
  Mg  Mg154  1  0.91570600  0.90508000  0.69711600  1
  Mg  Mg155  1  0.69415400  0.14838900  0.69265500  1
  Mg  Mg156  1  0.07775000  0.07078600  0.73145600  1
  Mg  Mg157  1  0.06997600  0.85535100  0.73404700  1
  Mg  Mg158  1  0.04642800  0.72225200  0.65572300  1
  Mg  Mg159  1  0.80491100  0.58973800  0.73404700  1
  Mg  Mg160  1  0.80584600  0.35161100  0.73591700  1
  Mg  Mg161  1  0.58429400  0.59492000  0.73145600  1
  Mg  Mg162  1  0.28081400  0.48132100  0.65572300  1
  Mg  Mg163  1  0.32559800  0.84500800  0.72715200  1
  Mg  Mg164  1  0.04987500  0.96753000  0.66261800  1
  Mg  Mg165  1  0.28519700  0.97033500  0.66448800  1
  Mg  Mg166  1  0.82998000  0.09254200  0.73591700  1
  Mg  Mg167  1  0.26790100  0.74432200  0.66002700  1
  Mg  Mg168  1  0.70796500  0.78635700  0.76854400  1
  Mg  Mg169  1  0.71573800  0.00179200  0.76595300  1
  Mg  Mg170  1  0.16785800  0.42060600  0.70142000  1
  Mg  Mg171  1  0.98080300  0.26740500  0.76595300  1
  Mg  Mg172  1  0.94638400  0.39853600  0.69711600  1
  Mg  Mg173  1  0.95573400  0.76460000  0.76408300  1
  Mg  Mg174  1  0.92908900  0.17252300  0.69265500  1
  Mg  Mg175  1  0.16441000  0.17532700  0.69452400  1
  Mg  Mg176  1  0.46011700  0.01213500  0.77284800  1
  Mg  Mg177  1  0.93347100  0.66153700  0.70142000  1
  Mg  Mg178  1  0.20142000  0.26222300  0.76854400  1
  Mg  Mg179  1  0.97986800  0.50553100  0.76408300  1
  Mg  Mg180  1  0.79203500  0.71364300  0.66002700  1
  Mg  Mg181  1  0.78426200  0.49820800  0.66261800  1
  Mg  Mg182  1  0.33214200  0.07939400  0.72715200  1
  Mg  Mg183  1  0.51919700  0.23259500  0.66261800  1
  Mg  Mg184  1  0.52013200  0.99446900  0.66448800  1
  Mg  Mg185  1  0.29858000  0.23777700  0.66002700  1
  Mg  Mg186  1  0.56652900  0.83846300  0.72715200  1
  Mg  Mg187  1  0.03988300  0.48786500  0.65572300  1
  Mg  Mg188  1  0.33559000  0.32467300  0.73404700  1
  Mg  Mg189  1  0.57091100  0.32747700  0.73591700  1
  Mg  Mg190  1  0.54426600  0.73540000  0.66448800  1
  Mg  Mg191  1  0.55361600  0.10146400  0.73145600  1
  As  As192  1  0.90232600  0.68488400  0.24684400  1
  As  As193  1  0.91910300  0.55149600  0.32458500  1
  As  As194  1  0.91594600  0.29202700  0.31827200  1
  As  As195  1  0.93804000  0.01993300  0.31827200  1
  As  As196  1  0.15548200  0.42225900  0.25315600  1
  As  As197  1  0.38338800  0.67225900  0.25315600  1
  As  As198  1  0.16910300  0.52940200  0.32458500  1
  As  As199  1  0.15232600  0.66279000  0.24684400  1
  As  As200  1  0.15548200  0.92225900  0.25315600  1
  As  As201  1  0.13338800  0.19435300  0.25315600  1
  As  As202  1  0.91594600  0.79202700  0.31827200  1
  As  As203  1  0.68804000  0.54202700  0.31827200  1
  As  As204  1  0.39285700  0.92857100  0.25000000  1
  As  As205  1  0.67857100  0.78571400  0.32142900  1
  As  As206  1  0.89285700  0.42857100  0.25000000  1
  As  As207  1  0.89285700  0.92857100  0.25000000  1
  As  As208  1  0.18804000  0.04202700  0.31827200  1
  As  As209  1  0.63338800  0.19435300  0.25315600  1
  As  As210  1  0.63023200  0.93488400  0.24684400  1
  As  As211  1  0.65232600  0.66279000  0.24684400  1
  As  As212  1  0.44119600  0.77940200  0.32458500  1
  As  As213  1  0.66910300  0.02940200  0.32458500  1
  As  As214  1  0.88338800  0.17225900  0.25315600  1
  As  As215  1  0.43804000  0.01993300  0.31827200  1
  As  As216  1  0.44119600  0.27940200  0.32458500  1
  As  As217  1  0.41910300  0.55149600  0.32458500  1
  As  As218  1  0.63023200  0.43488400  0.24684400  1
  As  As219  1  0.40232600  0.18488400  0.24684400  1
  As  As220  1  0.67857100  0.28571400  0.32142900  1
  As  As221  1  0.39285700  0.42857100  0.25000000  1
  As  As222  1  0.17857100  0.78571400  0.32142900  1
  As  As223  1  0.17857100  0.28571400  0.32142900  1
  As  As224  1  0.47375400  0.39917000  0.38970100  1
  As  As225  1  0.49053100  0.26578100  0.46744200  1
  As  As226  1  0.48737500  0.00631300  0.46112900  1
  As  As227  1  0.50946900  0.73421900  0.46112900  1
  As  As228  1  0.72691100  0.13654500  0.39601300  1
  As  As229  1  0.95481700  0.38654500  0.39601300  1
  As  As230  1  0.74053100  0.24368700  0.46744200  1
  As  As231  1  0.72375400  0.37707600  0.38970100  1
  As  As232  1  0.72691100  0.63654500  0.39601300  1
  As  As233  1  0.70481700  0.90863800  0.39601300  1
  As  As234  1  0.48737500  0.50631300  0.46112900  1
  As  As235  1  0.25946900  0.25631300  0.46112900  1
  As  As236  1  0.96428600  0.64285700  0.39285700  1
  As  As237  1  0.25000000  0.50000000  0.46428600  1
  As  As238  1  0.46428600  0.14285700  0.39285700  1
  As  As239  1  0.46428600  0.64285700  0.39285700  1
  As  As240  1  0.75946900  0.75631300  0.46112900  1
  As  As241  1  0.20481700  0.90863800  0.39601300  1
  As  As242  1  0.20166100  0.64917000  0.38970100  1
  As  As243  1  0.22375400  0.37707600  0.38970100  1
  As  As244  1  0.01262500  0.49368700  0.46744200  1
  As  As245  1  0.24053100  0.74368700  0.46744200  1
  As  As246  1  0.45481700  0.88654500  0.39601300  1
  As  As247  1  0.00946900  0.73421900  0.46112900  1
  As  As248  1  0.01262500  0.99368700  0.46744200  1
  As  As249  1  0.99053100  0.26578100  0.46744200  1
  As  As250  1  0.20166100  0.14917000  0.38970100  1
  As  As251  1  0.97375400  0.89917000  0.38970100  1
  As  As252  1  0.25000000  0.00000000  0.46428600  1
  As  As253  1  0.96428600  0.14285700  0.39285700  1
  As  As254  1  0.75000000  0.50000000  0.46428600  1
  As  As255  1  0.75000000  0.00000000  0.46428600  1
  As  As256  1  0.04518300  0.11345500  0.53255800  1
  As  As257  1  0.06196000  0.98006700  0.61029900  1
  As  As258  1  0.05880400  0.72059800  0.60398700  1
  As  As259  1  0.08089700  0.44850400  0.60398700  1
  As  As260  1  0.29833900  0.85083000  0.53887100  1
  As  As261  1  0.52624600  0.10083000  0.53887100  1
  As  As262  1  0.31196000  0.95797300  0.61029900  1
  As  As263  1  0.29518300  0.09136200  0.53255800  1
  As  As264  1  0.29833900  0.35083000  0.53887100  1
  As  As265  1  0.27624600  0.62292400  0.53887100  1
  As  As266  1  0.05880400  0.22059800  0.60398700  1
  As  As267  1  0.83089700  0.97059800  0.60398700  1
  As  As268  1  0.53571400  0.35714300  0.53571400  1
  As  As269  1  0.82142900  0.21428600  0.60714300  1
  As  As270  1  0.03571400  0.85714300  0.53571400  1
  As  As271  1  0.03571400  0.35714300  0.53571400  1
  As  As272  1  0.33089700  0.47059800  0.60398700  1
  As  As273  1  0.77624600  0.62292400  0.53887100  1
  As  As274  1  0.77308900  0.36345500  0.53255800  1
  As  As275  1  0.79518300  0.09136200  0.53255800  1
  As  As276  1  0.58405400  0.20797300  0.61029900  1
  As  As277  1  0.81196000  0.45797300  0.61029900  1
  As  As278  1  0.02624600  0.60083000  0.53887100  1
  As  As279  1  0.58089700  0.44850400  0.60398700  1
  As  As280  1  0.58405400  0.70797300  0.61029900  1
  As  As281  1  0.56196000  0.98006700  0.61029900  1
  As  As282  1  0.77308900  0.86345500  0.53255800  1
  As  As283  1  0.54518300  0.61345500  0.53255800  1
  As  As284  1  0.82142900  0.71428600  0.60714300  1
  As  As285  1  0.53571400  0.85714300  0.53571400  1
  As  As286  1  0.32142900  0.21428600  0.60714300  1
  As  As287  1  0.32142900  0.71428600  0.60714300  1
  As  As288  1  0.61661200  0.82774100  0.67541500  1
  As  As289  1  0.63338800  0.69435300  0.75315600  1
  As  As290  1  0.63023200  0.43488400  0.74684400  1
  As  As291  1  0.65232600  0.16279000  0.74684400  1
  As  As292  1  0.86976800  0.56511600  0.68172800  1
  As  As293  1  0.09767400  0.81511600  0.68172800  1
  As  As294  1  0.88338800  0.67225900  0.75315600  1
  As  As295  1  0.86661200  0.80564700  0.67541500  1
  As  As296  1  0.86976800  0.06511600  0.68172800  1
  As  As297  1  0.84767400  0.33721000  0.68172800  1
  As  As298  1  0.63023200  0.93488400  0.74684400  1
  As  As299  1  0.40232600  0.68488400  0.74684400  1
  As  As300  1  0.10714300  0.07142900  0.67857100  1
  As  As301  1  0.39285700  0.92857100  0.75000000  1
  As  As302  1  0.60714300  0.57142900  0.67857100  1
  As  As303  1  0.60714300  0.07142900  0.67857100  1
  As  As304  1  0.90232600  0.18488400  0.74684400  1
  As  As305  1  0.34767400  0.33721000  0.68172800  1
  As  As306  1  0.34451800  0.07774100  0.67541500  1
  As  As307  1  0.36661200  0.80564700  0.67541500  1
  As  As308  1  0.15548200  0.92225900  0.75315600  1
  As  As309  1  0.38338800  0.17225900  0.75315600  1
  As  As310  1  0.59767400  0.31511600  0.68172800  1
  As  As311  1  0.15232600  0.16279000  0.74684400  1
  As  As312  1  0.15548200  0.42225900  0.75315600  1
  As  As313  1  0.13338800  0.69435300  0.75315600  1
  As  As314  1  0.34451800  0.57774100  0.67541500  1
  As  As315  1  0.11661200  0.32774100  0.67541500  1
  As  As316  1  0.39285700  0.42857100  0.75000000  1
  As  As317  1  0.10714300  0.57142900  0.67857100  1
  As  As318  1  0.89285700  0.92857100  0.75000000  1
  As  As319  1  0.89285700  0.42857100  0.75000000  1
