# generated using pymatgen
data_Mg5Tl2
_symmetry_space_group_name_H-M   'P 1'
_cell_length_a   6.32911700
_cell_length_b   7.14576700
_cell_length_c   58.90696300
_cell_angle_alpha   90.00000000
_cell_angle_beta   90.00000000
_cell_angle_gamma   90.00000000
_symmetry_Int_Tables_number   1
_chemical_formula_structural   Mg5Tl2
_chemical_formula_sum   'Mg40 Tl16'
_cell_volume   2664.14960032
_cell_formula_units_Z   8
loop_
 _symmetry_equiv_pos_site_id
 _symmetry_equiv_pos_as_xyz
  1  'x, y, z'
loop_
 _atom_site_type_symbol
 _atom_site_label
 _atom_site_symmetry_multiplicity
 _atom_site_fract_x
 _atom_site_fract_y
 _atom_site_fract_z
 _atom_site_occupancy
  Mg  Mg0  1  1.00000000  0.16481900  0.45873700  1
  Mg  Mg1  1  0.75000000  0.00000000  0.25366000  1
  Mg  Mg2  1  0.25000000  0.50000000  0.43750000  1
  Mg  Mg3  1  1.00000000  0.66481900  0.29126300  1
  Mg  Mg4  1  0.50000000  0.33518100  0.29126300  1
  Mg  Mg5  1  0.75000000  0.50000000  0.49634000  1
  Mg  Mg6  1  0.25000000  0.50000000  0.49634000  1
  Mg  Mg7  1  0.25000000  0.00000000  0.25366000  1
  Mg  Mg8  1  0.50000000  0.83518100  0.45873700  1
  Mg  Mg9  1  0.75000000  0.50000000  0.43750000  1
  Mg  Mg10  1  0.50000000  0.66481900  0.33373700  1
  Mg  Mg11  1  0.25000000  0.50000000  0.37866000  1
  Mg  Mg12  1  0.75000000  0.00000000  0.31250000  1
  Mg  Mg13  1  0.50000000  0.16481900  0.41626300  1
  Mg  Mg14  1  1.00000000  0.83518100  0.41626300  1
  Mg  Mg15  1  0.25000000  0.00000000  0.37134000  1
  Mg  Mg16  1  0.75000000  0.00000000  0.37134000  1
  Mg  Mg17  1  0.75000000  0.50000000  0.37866000  1
  Mg  Mg18  1  0.00000000  0.33518100  0.33373700  1
  Mg  Mg19  1  0.25000000  0.00000000  0.31250000  1
  Mg  Mg20  1  1.00000000  0.16481900  0.70873700  1
  Mg  Mg21  1  0.75000000  0.00000000  0.50366000  1
  Mg  Mg22  1  0.25000000  0.50000000  0.68750000  1
  Mg  Mg23  1  1.00000000  0.66481900  0.54126300  1
  Mg  Mg24  1  0.50000000  0.33518100  0.54126300  1
  Mg  Mg25  1  0.75000000  0.50000000  0.74634000  1
  Mg  Mg26  1  0.25000000  0.50000000  0.74634000  1
  Mg  Mg27  1  0.25000000  0.00000000  0.50366000  1
  Mg  Mg28  1  0.50000000  0.83518100  0.70873700  1
  Mg  Mg29  1  0.75000000  0.50000000  0.68750000  1
  Mg  Mg30  1  0.50000000  0.66481900  0.58373700  1
  Mg  Mg31  1  0.25000000  0.50000000  0.62866000  1
  Mg  Mg32  1  0.75000000  0.00000000  0.56250000  1
  Mg  Mg33  1  0.50000000  0.16481900  0.66626300  1
  Mg  Mg34  1  1.00000000  0.83518100  0.66626300  1
  Mg  Mg35  1  0.25000000  0.00000000  0.62134000  1
  Mg  Mg36  1  0.75000000  0.00000000  0.62134000  1
  Mg  Mg37  1  0.75000000  0.50000000  0.62866000  1
  Mg  Mg38  1  0.00000000  0.33518100  0.58373700  1
  Mg  Mg39  1  0.25000000  0.00000000  0.56250000  1
  Tl  Tl40  1  0.50000000  0.73666200  0.28204200  1
  Tl  Tl41  1  0.50000000  0.23666200  0.46795800  1
  Tl  Tl42  1  0.00000000  0.26333800  0.28204200  1
  Tl  Tl43  1  0.00000000  0.76333800  0.46795800  1
  Tl  Tl44  1  1.00000000  0.23666200  0.40704200  1
  Tl  Tl45  1  0.00000000  0.73666200  0.34295800  1
  Tl  Tl46  1  0.50000000  0.76333800  0.40704200  1
  Tl  Tl47  1  0.50000000  0.26333800  0.34295800  1
  Tl  Tl48  1  0.50000000  0.73666200  0.53204200  1
  Tl  Tl49  1  0.50000000  0.23666200  0.71795800  1
  Tl  Tl50  1  0.00000000  0.26333800  0.53204200  1
  Tl  Tl51  1  0.00000000  0.76333800  0.71795800  1
  Tl  Tl52  1  1.00000000  0.23666200  0.65704200  1
  Tl  Tl53  1  0.00000000  0.73666200  0.59295800  1
  Tl  Tl54  1  0.50000000  0.76333800  0.65704200  1
  Tl  Tl55  1  0.50000000  0.26333800  0.59295800  1
