# generated using pymatgen
data_Ca2Mg
_symmetry_space_group_name_H-M   'P 1'
_cell_length_a   4.03063351
_cell_length_b   7.27631031
_cell_length_c   44.94231300
_cell_angle_alpha   91.17661978
_cell_angle_beta   90.08571697
_cell_angle_gamma   105.80411373
_symmetry_Int_Tables_number   1
_chemical_formula_structural   Ca2Mg
_chemical_formula_sum   'Ca14 Mg7'
_cell_volume   1267.94734783
_cell_formula_units_Z   7
loop_
 _symmetry_equiv_pos_site_id
 _symmetry_equiv_pos_as_xyz
  1  'x, y, z'
loop_
 _atom_site_type_symbol
 _atom_site_label
 _atom_site_symmetry_multiplicity
 _atom_site_fract_x
 _atom_site_fract_y
 _atom_site_fract_z
 _atom_site_occupancy
  Ca  Ca0  1  0.42515400  0.43596300  0.27942400  1
  Ca  Ca1  1  0.07484600  0.73063200  0.22057600  1
  Ca  Ca2  1  0.50848700  0.60262900  0.36275800  1
  Ca  Ca3  1  0.15817900  0.89729900  0.30390900  1
  Ca  Ca4  1  0.59182100  0.76929600  0.44609100  1
  Ca  Ca5  1  0.24151300  0.06396500  0.38724200  1
  Ca  Ca6  1  0.67515400  0.93596300  0.52942400  1
  Ca  Ca7  1  0.32484600  0.23063200  0.47057600  1
  Ca  Ca8  1  0.75848700  0.10262900  0.61275800  1
  Ca  Ca9  1  0.40817900  0.39729900  0.55390900  1
  Ca  Ca10  1  0.84182100  0.26929600  0.69609100  1
  Ca  Ca11  1  0.49151300  0.56396500  0.63724200  1
  Ca  Ca12  1  0.92515400  0.43596300  0.77942400  1
  Ca  Ca13  1  0.57484600  0.73063200  0.72057600  1
  Mg  Mg14  1  0.75000000  0.08329700  0.25000000  1
  Mg  Mg15  1  0.83333300  0.24996400  0.33333300  1
  Mg  Mg16  1  0.91666700  0.41663100  0.41666700  1
  Mg  Mg17  1  1.00000000  0.58329700  0.50000000  1
  Mg  Mg18  1  0.08333300  0.74996400  0.58333300  1
  Mg  Mg19  1  0.16666700  0.91663100  0.66666700  1
  Mg  Mg20  1  0.25000000  0.08329700  0.75000000  1
