# generated using pymatgen
data_Mg47Ga20
_symmetry_space_group_name_H-M   'P 1'
_cell_length_a   6.82567400
_cell_length_b   13.91478600
_cell_length_c   48.88285800
_cell_angle_alpha   90.00000000
_cell_angle_beta   90.00000000
_cell_angle_gamma   90.00000000
_symmetry_Int_Tables_number   1
_chemical_formula_structural   Mg47Ga20
_chemical_formula_sum   'Mg94 Ga40'
_cell_volume   4642.78596914
_cell_formula_units_Z   2
loop_
 _symmetry_equiv_pos_site_id
 _symmetry_equiv_pos_as_xyz
  1  'x, y, z'
loop_
 _atom_site_type_symbol
 _atom_site_label
 _atom_site_symmetry_multiplicity
 _atom_site_fract_x
 _atom_site_fract_y
 _atom_site_fract_z
 _atom_site_occupancy
  Mg  Mg0  1  0.65542800  0.08268200  0.23214300  1
  Mg  Mg1  1  0.84457200  0.41731800  0.29464300  1
  Mg  Mg2  1  0.15542800  0.41731800  0.23214300  1
  Mg  Mg3  1  0.34457200  0.08268200  0.29464300  1
  Mg  Mg4  1  0.00000000  0.00000000  0.26339300  1
  Mg  Mg5  1  0.50000000  0.26531200  0.26339300  1
  Mg  Mg6  1  0.00000000  0.23468800  0.26339300  1
  Mg  Mg7  1  0.15542800  0.58268200  0.29464300  1
  Mg  Mg8  1  0.34457200  0.91731800  0.23214300  1
  Mg  Mg9  1  0.65542800  0.91731800  0.29464300  1
  Mg  Mg10  1  0.84457200  0.58268200  0.23214300  1
  Mg  Mg11  1  0.50000000  0.50000000  0.26339300  1
  Mg  Mg12  1  0.50000000  0.73468800  0.26339300  1
  Mg  Mg13  1  0.00000000  0.76531200  0.26339300  1
  Mg  Mg14  1  0.65542800  0.08268200  0.35714300  1
  Mg  Mg15  1  0.84457200  0.41731800  0.41964300  1
  Mg  Mg16  1  0.15542800  0.41731800  0.35714300  1
  Mg  Mg17  1  0.34457200  0.08268200  0.41964300  1
  Mg  Mg18  1  0.00000000  0.00000000  0.32589300  1
  Mg  Mg19  1  0.00000000  0.00000000  0.38839300  1
  Mg  Mg20  1  0.00000000  0.23468800  0.32589300  1
  Mg  Mg21  1  0.50000000  0.26531200  0.38839300  1
  Mg  Mg22  1  0.50000000  0.26531200  0.32589300  1
  Mg  Mg23  1  0.00000000  0.23468800  0.38839300  1
  Mg  Mg24  1  0.15542800  0.58268200  0.41964300  1
  Mg  Mg25  1  0.34457200  0.91731800  0.35714300  1
  Mg  Mg26  1  0.65542800  0.91731800  0.41964300  1
  Mg  Mg27  1  0.84457200  0.58268200  0.35714300  1
  Mg  Mg28  1  0.50000000  0.50000000  0.38839300  1
  Mg  Mg29  1  0.50000000  0.50000000  0.32589300  1
  Mg  Mg30  1  0.50000000  0.73468800  0.38839300  1
  Mg  Mg31  1  0.00000000  0.76531200  0.32589300  1
  Mg  Mg32  1  0.00000000  0.76531200  0.38839300  1
  Mg  Mg33  1  0.50000000  0.73468800  0.32589300  1
  Mg  Mg34  1  0.65542800  0.08268200  0.48214300  1
  Mg  Mg35  1  0.84457200  0.41731800  0.54464300  1
  Mg  Mg36  1  0.15542800  0.41731800  0.48214300  1
  Mg  Mg37  1  0.34457200  0.08268200  0.54464300  1
  Mg  Mg38  1  0.00000000  0.00000000  0.45089300  1
  Mg  Mg39  1  0.00000000  0.00000000  0.51339300  1
  Mg  Mg40  1  0.00000000  0.23468800  0.45089300  1
  Mg  Mg41  1  0.50000000  0.26531200  0.51339300  1
  Mg  Mg42  1  0.50000000  0.26531200  0.45089300  1
  Mg  Mg43  1  0.00000000  0.23468800  0.51339300  1
  Mg  Mg44  1  0.15542800  0.58268200  0.54464300  1
  Mg  Mg45  1  0.34457200  0.91731800  0.48214300  1
  Mg  Mg46  1  0.65542800  0.91731800  0.54464300  1
  Mg  Mg47  1  0.84457200  0.58268200  0.48214300  1
  Mg  Mg48  1  0.50000000  0.50000000  0.51339300  1
  Mg  Mg49  1  0.50000000  0.50000000  0.45089300  1
  Mg  Mg50  1  0.50000000  0.73468800  0.51339300  1
  Mg  Mg51  1  0.00000000  0.76531200  0.45089300  1
  Mg  Mg52  1  0.00000000  0.76531200  0.51339300  1
  Mg  Mg53  1  0.50000000  0.73468800  0.45089300  1
  Mg  Mg54  1  0.65542800  0.08268200  0.60714300  1
  Mg  Mg55  1  0.84457200  0.41731800  0.66964300  1
  Mg  Mg56  1  0.15542800  0.41731800  0.60714300  1
  Mg  Mg57  1  0.34457200  0.08268200  0.66964300  1
  Mg  Mg58  1  0.00000000  0.00000000  0.57589300  1
  Mg  Mg59  1  0.00000000  0.00000000  0.63839300  1
  Mg  Mg60  1  0.00000000  0.23468800  0.57589300  1
  Mg  Mg61  1  0.50000000  0.26531200  0.63839300  1
  Mg  Mg62  1  0.50000000  0.26531200  0.57589300  1
  Mg  Mg63  1  0.00000000  0.23468800  0.63839300  1
  Mg  Mg64  1  0.15542800  0.58268200  0.66964300  1
  Mg  Mg65  1  0.34457200  0.91731800  0.60714300  1
  Mg  Mg66  1  0.65542800  0.91731800  0.66964300  1
  Mg  Mg67  1  0.84457200  0.58268200  0.60714300  1
  Mg  Mg68  1  0.50000000  0.50000000  0.63839300  1
  Mg  Mg69  1  0.50000000  0.50000000  0.57589300  1
  Mg  Mg70  1  0.50000000  0.73468800  0.63839300  1
  Mg  Mg71  1  0.00000000  0.76531200  0.57589300  1
  Mg  Mg72  1  0.00000000  0.76531200  0.63839300  1
  Mg  Mg73  1  0.50000000  0.73468800  0.57589300  1
  Mg  Mg74  1  0.65542800  0.08268200  0.73214300  1
  Mg  Mg75  1  0.84457200  0.41731800  0.79464300  1
  Mg  Mg76  1  0.15542800  0.41731800  0.73214300  1
  Mg  Mg77  1  0.34457200  0.08268200  0.79464300  1
  Mg  Mg78  1  0.00000000  0.00000000  0.70089300  1
  Mg  Mg79  1  0.00000000  0.00000000  0.76339300  1
  Mg  Mg80  1  0.00000000  0.23468800  0.70089300  1
  Mg  Mg81  1  0.50000000  0.26531200  0.76339300  1
  Mg  Mg82  1  0.50000000  0.26531200  0.70089300  1
  Mg  Mg83  1  0.00000000  0.23468800  0.76339300  1
  Mg  Mg84  1  0.15542800  0.58268200  0.79464300  1
  Mg  Mg85  1  0.34457200  0.91731800  0.73214300  1
  Mg  Mg86  1  0.65542800  0.91731800  0.79464300  1
  Mg  Mg87  1  0.84457200  0.58268200  0.73214300  1
  Mg  Mg88  1  0.50000000  0.50000000  0.76339300  1
  Mg  Mg89  1  0.50000000  0.50000000  0.70089300  1
  Mg  Mg90  1  0.50000000  0.73468800  0.76339300  1
  Mg  Mg91  1  0.00000000  0.76531200  0.70089300  1
  Mg  Mg92  1  0.00000000  0.76531200  0.76339300  1
  Mg  Mg93  1  0.50000000  0.73468800  0.70089300  1
  Ga  Ga94  1  0.25943400  0.12241300  0.23214300  1
  Ga  Ga95  1  0.24056600  0.37758700  0.29464300  1
  Ga  Ga96  1  0.75943400  0.37758700  0.23214300  1
  Ga  Ga97  1  0.74056600  0.12241300  0.29464300  1
  Ga  Ga98  1  0.75943400  0.62241300  0.29464300  1
  Ga  Ga99  1  0.74056600  0.87758700  0.23214300  1
  Ga  Ga100  1  0.25943400  0.87758700  0.29464300  1
  Ga  Ga101  1  0.24056600  0.62241300  0.23214300  1
  Ga  Ga102  1  0.25943400  0.12241300  0.35714300  1
  Ga  Ga103  1  0.24056600  0.37758700  0.41964300  1
  Ga  Ga104  1  0.75943400  0.37758700  0.35714300  1
  Ga  Ga105  1  0.74056600  0.12241300  0.41964300  1
  Ga  Ga106  1  0.75943400  0.62241300  0.41964300  1
  Ga  Ga107  1  0.74056600  0.87758700  0.35714300  1
  Ga  Ga108  1  0.25943400  0.87758700  0.41964300  1
  Ga  Ga109  1  0.24056600  0.62241300  0.35714300  1
  Ga  Ga110  1  0.25943400  0.12241300  0.48214300  1
  Ga  Ga111  1  0.24056600  0.37758700  0.54464300  1
  Ga  Ga112  1  0.75943400  0.37758700  0.48214300  1
  Ga  Ga113  1  0.74056600  0.12241300  0.54464300  1
  Ga  Ga114  1  0.75943400  0.62241300  0.54464300  1
  Ga  Ga115  1  0.74056600  0.87758700  0.48214300  1
  Ga  Ga116  1  0.25943400  0.87758700  0.54464300  1
  Ga  Ga117  1  0.24056600  0.62241300  0.48214300  1
  Ga  Ga118  1  0.25943400  0.12241300  0.60714300  1
  Ga  Ga119  1  0.24056600  0.37758700  0.66964300  1
  Ga  Ga120  1  0.75943400  0.37758700  0.60714300  1
  Ga  Ga121  1  0.74056600  0.12241300  0.66964300  1
  Ga  Ga122  1  0.75943400  0.62241300  0.66964300  1
  Ga  Ga123  1  0.74056600  0.87758700  0.60714300  1
  Ga  Ga124  1  0.25943400  0.87758700  0.66964300  1
  Ga  Ga125  1  0.24056600  0.62241300  0.60714300  1
  Ga  Ga126  1  0.25943400  0.12241300  0.73214300  1
  Ga  Ga127  1  0.24056600  0.37758700  0.79464300  1
  Ga  Ga128  1  0.75943400  0.37758700  0.73214300  1
  Ga  Ga129  1  0.74056600  0.12241300  0.79464300  1
  Ga  Ga130  1  0.75943400  0.62241300  0.79464300  1
  Ga  Ga131  1  0.74056600  0.87758700  0.73214300  1
  Ga  Ga132  1  0.25943400  0.87758700  0.79464300  1
  Ga  Ga133  1  0.24056600  0.62241300  0.73214300  1
