# generated using pymatgen
data_Pr5Mg56
_symmetry_space_group_name_H-M   'P 1'
_cell_length_a   7.86707097
_cell_length_b   7.86707161
_cell_length_c   41.13233300
_cell_angle_alpha   89.89596976
_cell_angle_beta   89.89596975
_cell_angle_gamma   81.82603946
_symmetry_Int_Tables_number   1
_chemical_formula_structural   Pr5Mg56
_chemical_formula_sum   'Pr5 Mg56'
_cell_volume   2519.84413203
_cell_formula_units_Z   1
loop_
 _symmetry_equiv_pos_site_id
 _symmetry_equiv_pos_as_xyz
  1  'x, y, z'
loop_
 _atom_site_type_symbol
 _atom_site_label
 _atom_site_symmetry_multiplicity
 _atom_site_fract_x
 _atom_site_fract_y
 _atom_site_fract_z
 _atom_site_occupancy
  Pr  Pr0  1  0.14346900  0.14346900  0.73076900  1
  Pr  Pr1  1  0.39346900  0.39346900  0.60576900  1
  Pr  Pr2  1  0.64346900  0.64346900  0.48076900  1
  Pr  Pr3  1  0.89346900  0.89346900  0.35576900  1
  Pr  Pr4  1  0.14346900  0.14346900  0.23076900  1
  Mg  Mg5  1  0.14346900  0.64346900  0.73076900  1
  Mg  Mg6  1  0.64346900  0.14346900  0.73076900  1
  Mg  Mg7  1  0.40765600  0.40765600  0.77480000  1
  Mg  Mg8  1  0.79121900  0.49571800  0.73076900  1
  Mg  Mg9  1  0.49571800  0.79121900  0.73076900  1
  Mg  Mg10  1  0.87928200  0.87928200  0.68673800  1
  Mg  Mg11  1  0.85864400  0.85864400  0.76663200  1
  Mg  Mg12  1  0.42829400  0.42829400  0.69490700  1
  Mg  Mg13  1  0.39346900  0.89346900  0.60576900  1
  Mg  Mg14  1  0.76846900  0.26846900  0.66826900  1
  Mg  Mg15  1  0.89346900  0.39346900  0.60576900  1
  Mg  Mg16  1  0.26846900  0.76846900  0.66826900  1
  Mg  Mg17  1  0.65765600  0.65765600  0.64980000  1
  Mg  Mg18  1  0.04121900  0.74571800  0.60576900  1
  Mg  Mg19  1  0.74571800  0.04121900  0.60576900  1
  Mg  Mg20  1  0.12928200  0.12928200  0.56173800  1
  Mg  Mg21  1  0.10864400  0.10864400  0.64163200  1
  Mg  Mg22  1  0.48156900  0.05536900  0.66826900  1
  Mg  Mg23  1  0.05536900  0.48156900  0.66826900  1
  Mg  Mg24  1  0.67829400  0.67829400  0.56990700  1
  Mg  Mg25  1  0.64346900  0.14346900  0.48076900  1
  Mg  Mg26  1  0.01846900  0.51846900  0.54326900  1
  Mg  Mg27  1  0.14346900  0.64346900  0.48076900  1
  Mg  Mg28  1  0.51846900  0.01846900  0.54326900  1
  Mg  Mg29  1  0.90765600  0.90765600  0.52480000  1
  Mg  Mg30  1  0.29121900  0.99571800  0.48076900  1
  Mg  Mg31  1  0.99571800  0.29121900  0.48076900  1
  Mg  Mg32  1  0.37928200  0.37928200  0.43673800  1
  Mg  Mg33  1  0.35864400  0.35864400  0.51663200  1
  Mg  Mg34  1  0.73156900  0.30536900  0.54326900  1
  Mg  Mg35  1  0.30536900  0.73156900  0.54326900  1
  Mg  Mg36  1  0.92829400  0.92829400  0.44490700  1
  Mg  Mg37  1  0.89346900  0.39346900  0.35576900  1
  Mg  Mg38  1  0.26846900  0.76846900  0.41826900  1
  Mg  Mg39  1  0.39346900  0.89346900  0.35576900  1
  Mg  Mg40  1  0.76846900  0.26846900  0.41826900  1
  Mg  Mg41  1  0.15765600  0.15765600  0.39980000  1
  Mg  Mg42  1  0.54121900  0.24571800  0.35576900  1
  Mg  Mg43  1  0.24571800  0.54121900  0.35576900  1
  Mg  Mg44  1  0.62928200  0.62928200  0.31173800  1
  Mg  Mg45  1  0.60864400  0.60864400  0.39163200  1
  Mg  Mg46  1  0.98156900  0.55536900  0.41826900  1
  Mg  Mg47  1  0.55536900  0.98156900  0.41826900  1
  Mg  Mg48  1  0.17829400  0.17829400  0.31990700  1
  Mg  Mg49  1  0.14346900  0.64346900  0.23076900  1
  Mg  Mg50  1  0.51846900  0.01846900  0.29326900  1
  Mg  Mg51  1  0.64346900  0.14346900  0.23076900  1
  Mg  Mg52  1  0.01846900  0.51846900  0.29326900  1
  Mg  Mg53  1  0.40765600  0.40765600  0.27480000  1
  Mg  Mg54  1  0.79121900  0.49571800  0.23076900  1
  Mg  Mg55  1  0.49571800  0.79121900  0.23076900  1
  Mg  Mg56  1  0.87928200  0.87928200  0.18673800  1
  Mg  Mg57  1  0.85864400  0.85864400  0.26663200  1
  Mg  Mg58  1  0.23156900  0.80536900  0.29326900  1
  Mg  Mg59  1  0.80536900  0.23156900  0.29326900  1
  Mg  Mg60  1  0.42829400  0.42829400  0.19490700  1
