# generated using pymatgen
data_MgSc2
_symmetry_space_group_name_H-M   'P 1'
_cell_length_a   3.35466600
_cell_length_b   17.27528044
_cell_length_c   49.31366500
_cell_angle_alpha   92.13654328
_cell_angle_beta   90.00000000
_cell_angle_gamma   90.00000000
_symmetry_Int_Tables_number   1
_chemical_formula_structural   MgSc2
_chemical_formula_sum   'Mg24 Sc48'
_cell_volume   2855.87803226
_cell_formula_units_Z   24
loop_
 _symmetry_equiv_pos_site_id
 _symmetry_equiv_pos_as_xyz
  1  'x, y, z'
loop_
 _atom_site_type_symbol
 _atom_site_label
 _atom_site_symmetry_multiplicity
 _atom_site_fract_x
 _atom_site_fract_y
 _atom_site_fract_z
 _atom_site_occupancy
  Mg  Mg0  1  0.50000000  0.60616200  0.24376000  1
  Mg  Mg1  1  0.00000000  0.99383800  0.25624000  1
  Mg  Mg2  1  0.00000000  0.15616200  0.29376000  1
  Mg  Mg3  1  0.50000000  0.44383800  0.20624000  1
  Mg  Mg4  1  0.50000000  0.70616200  0.34376000  1
  Mg  Mg5  1  0.00000000  0.09383800  0.35624000  1
  Mg  Mg6  1  1.00000000  0.25616200  0.39376000  1
  Mg  Mg7  1  0.50000000  0.54383800  0.30624000  1
  Mg  Mg8  1  0.50000000  0.80616200  0.44376000  1
  Mg  Mg9  1  0.00000000  0.19383800  0.45624000  1
  Mg  Mg10  1  0.00000000  0.35616200  0.49376000  1
  Mg  Mg11  1  0.50000000  0.64383800  0.40624000  1
  Mg  Mg12  1  0.50000000  0.90616200  0.54376000  1
  Mg  Mg13  1  0.00000000  0.29383800  0.55624000  1
  Mg  Mg14  1  1.00000000  0.45616200  0.59376000  1
  Mg  Mg15  1  0.50000000  0.74383800  0.50624000  1
  Mg  Mg16  1  0.50000000  0.00616200  0.64376000  1
  Mg  Mg17  1  0.00000000  0.39383800  0.65624000  1
  Mg  Mg18  1  1.00000000  0.55616200  0.69376000  1
  Mg  Mg19  1  0.50000000  0.84383800  0.60624000  1
  Mg  Mg20  1  0.50000000  0.10616200  0.74376000  1
  Mg  Mg21  1  0.00000000  0.49383800  0.75624000  1
  Mg  Mg22  1  0.00000000  0.65616200  0.79376000  1
  Mg  Mg23  1  0.50000000  0.94383800  0.70624000  1
  Sc  Sc24  1  0.50000000  0.90784100  0.21024000  1
  Sc  Sc25  1  0.00000000  0.75410000  0.22732200  1
  Sc  Sc26  1  0.00000000  0.69215900  0.28976000  1
  Sc  Sc27  1  0.50000000  0.84590000  0.27267800  1
  Sc  Sc28  1  0.00000000  0.45784100  0.26024000  1
  Sc  Sc29  1  0.50000000  0.30410000  0.27732200  1
  Sc  Sc30  1  0.50000000  0.14215900  0.23976000  1
  Sc  Sc31  1  0.00000000  0.29590000  0.22267800  1
  Sc  Sc32  1  0.50000000  0.00784100  0.31024000  1
  Sc  Sc33  1  0.00000000  0.85410000  0.32732200  1
  Sc  Sc34  1  0.00000000  0.79215900  0.38976000  1
  Sc  Sc35  1  0.50000000  0.94590000  0.37267800  1
  Sc  Sc36  1  1.00000000  0.55784100  0.36024000  1
  Sc  Sc37  1  0.50000000  0.40410000  0.37732200  1
  Sc  Sc38  1  0.50000000  0.24215900  0.33976000  1
  Sc  Sc39  1  1.00000000  0.39590000  0.32267800  1
  Sc  Sc40  1  0.50000000  0.10784100  0.41024000  1
  Sc  Sc41  1  1.00000000  0.95410000  0.42732200  1
  Sc  Sc42  1  0.00000000  0.89215900  0.48976000  1
  Sc  Sc43  1  0.50000000  0.04590000  0.47267800  1
  Sc  Sc44  1  0.00000000  0.65784100  0.46024000  1
  Sc  Sc45  1  0.50000000  0.50410000  0.47732200  1
  Sc  Sc46  1  0.50000000  0.34215900  0.43976000  1
  Sc  Sc47  1  0.00000000  0.49590000  0.42267800  1
  Sc  Sc48  1  0.50000000  0.20784100  0.51024000  1
  Sc  Sc49  1  1.00000000  0.05410000  0.52732200  1
  Sc  Sc50  1  0.00000000  0.99215900  0.58976000  1
  Sc  Sc51  1  0.50000000  0.14590000  0.57267800  1
  Sc  Sc52  1  0.00000000  0.75784100  0.56024000  1
  Sc  Sc53  1  0.50000000  0.60410000  0.57732200  1
  Sc  Sc54  1  0.50000000  0.44215900  0.53976000  1
  Sc  Sc55  1  1.00000000  0.59590000  0.52267800  1
  Sc  Sc56  1  0.50000000  0.30784100  0.61024000  1
  Sc  Sc57  1  1.00000000  0.15410000  0.62732200  1
  Sc  Sc58  1  1.00000000  0.09215900  0.68976000  1
  Sc  Sc59  1  0.50000000  0.24590000  0.67267800  1
  Sc  Sc60  1  1.00000000  0.85784100  0.66024000  1
  Sc  Sc61  1  0.50000000  0.70410000  0.67732200  1
  Sc  Sc62  1  0.50000000  0.54215900  0.63976000  1
  Sc  Sc63  1  0.00000000  0.69590000  0.62267800  1
  Sc  Sc64  1  0.50000000  0.40784100  0.71024000  1
  Sc  Sc65  1  0.00000000  0.25410000  0.72732200  1
  Sc  Sc66  1  0.00000000  0.19215900  0.78976000  1
  Sc  Sc67  1  0.50000000  0.34590000  0.77267800  1
  Sc  Sc68  1  0.00000000  0.95784100  0.76024000  1
  Sc  Sc69  1  0.50000000  0.80410000  0.77732200  1
  Sc  Sc70  1  0.50000000  0.64215900  0.73976000  1
  Sc  Sc71  1  1.00000000  0.79590000  0.72267800  1
