# generated using pymatgen
data_TbMg2
_symmetry_space_group_name_H-M   'P 1'
_cell_length_a   6.08248400
_cell_length_b   9.78730500
_cell_length_c   42.14068500
_cell_angle_alpha   90.00000000
_cell_angle_beta   90.00000000
_cell_angle_gamma   90.00000000
_symmetry_Int_Tables_number   1
_chemical_formula_structural   TbMg2
_chemical_formula_sum   'Tb20 Mg40'
_cell_volume   2508.68243123
_cell_formula_units_Z   20
loop_
 _symmetry_equiv_pos_site_id
 _symmetry_equiv_pos_as_xyz
  1  'x, y, z'
loop_
 _atom_site_type_symbol
 _atom_site_label
 _atom_site_symmetry_multiplicity
 _atom_site_fract_x
 _atom_site_fract_y
 _atom_site_fract_z
 _atom_site_occupancy
  Tb  Tb0  1  0.25000000  0.56262100  0.20833300  1
  Tb  Tb1  1  0.25000000  0.06262100  0.29166700  1
  Tb  Tb2  1  0.25000000  0.43737900  0.29166700  1
  Tb  Tb3  1  0.25000000  0.93737900  0.20833300  1
  Tb  Tb4  1  0.75000000  0.56262100  0.33333300  1
  Tb  Tb5  1  0.75000000  0.06262100  0.41666700  1
  Tb  Tb6  1  0.75000000  0.43737900  0.41666700  1
  Tb  Tb7  1  0.75000000  0.93737900  0.33333300  1
  Tb  Tb8  1  0.25000000  0.56262100  0.45833300  1
  Tb  Tb9  1  0.25000000  0.06262100  0.54166700  1
  Tb  Tb10  1  0.25000000  0.43737900  0.54166700  1
  Tb  Tb11  1  0.25000000  0.93737900  0.45833300  1
  Tb  Tb12  1  0.75000000  0.56262100  0.58333300  1
  Tb  Tb13  1  0.75000000  0.06262100  0.66666700  1
  Tb  Tb14  1  0.75000000  0.43737900  0.66666700  1
  Tb  Tb15  1  0.75000000  0.93737900  0.58333300  1
  Tb  Tb16  1  0.25000000  0.56262100  0.70833300  1
  Tb  Tb17  1  0.25000000  0.06262100  0.79166700  1
  Tb  Tb18  1  0.25000000  0.43737900  0.79166700  1
  Tb  Tb19  1  0.25000000  0.93737900  0.70833300  1
  Mg  Mg20  1  0.75000000  0.50000000  0.25000000  1
  Mg  Mg21  1  0.75000000  0.00000000  0.25000000  1
  Mg  Mg22  1  0.75000000  0.75000000  0.20715900  1
  Mg  Mg23  1  0.49295400  0.25000000  0.22857900  1
  Mg  Mg24  1  0.00704600  0.25000000  0.22857900  1
  Mg  Mg25  1  0.49295400  0.75000000  0.27142100  1
  Mg  Mg26  1  0.00704600  0.75000000  0.27142100  1
  Mg  Mg27  1  0.75000000  0.25000000  0.29284100  1
  Mg  Mg28  1  0.25000000  0.50000000  0.37500000  1
  Mg  Mg29  1  0.25000000  0.00000000  0.37500000  1
  Mg  Mg30  1  0.25000000  0.75000000  0.33215900  1
  Mg  Mg31  1  0.99295400  0.25000000  0.35357900  1
  Mg  Mg32  1  0.50704600  0.25000000  0.35357900  1
  Mg  Mg33  1  0.99295400  0.75000000  0.39642100  1
  Mg  Mg34  1  0.50704600  0.75000000  0.39642100  1
  Mg  Mg35  1  0.25000000  0.25000000  0.41784100  1
  Mg  Mg36  1  0.75000000  0.50000000  0.50000000  1
  Mg  Mg37  1  0.75000000  0.00000000  0.50000000  1
  Mg  Mg38  1  0.75000000  0.75000000  0.45715900  1
  Mg  Mg39  1  0.49295400  0.25000000  0.47857900  1
  Mg  Mg40  1  0.00704600  0.25000000  0.47857900  1
  Mg  Mg41  1  0.49295400  0.75000000  0.52142100  1
  Mg  Mg42  1  0.00704600  0.75000000  0.52142100  1
  Mg  Mg43  1  0.75000000  0.25000000  0.54284100  1
  Mg  Mg44  1  0.25000000  0.50000000  0.62500000  1
  Mg  Mg45  1  0.25000000  0.00000000  0.62500000  1
  Mg  Mg46  1  0.25000000  0.75000000  0.58215900  1
  Mg  Mg47  1  0.99295400  0.25000000  0.60357900  1
  Mg  Mg48  1  0.50704600  0.25000000  0.60357900  1
  Mg  Mg49  1  0.99295400  0.75000000  0.64642100  1
  Mg  Mg50  1  0.50704600  0.75000000  0.64642100  1
  Mg  Mg51  1  0.25000000  0.25000000  0.66784100  1
  Mg  Mg52  1  0.75000000  0.50000000  0.75000000  1
  Mg  Mg53  1  0.75000000  0.00000000  0.75000000  1
  Mg  Mg54  1  0.75000000  0.75000000  0.70715900  1
  Mg  Mg55  1  0.49295400  0.25000000  0.72857900  1
  Mg  Mg56  1  0.00704600  0.25000000  0.72857900  1
  Mg  Mg57  1  0.49295400  0.75000000  0.77142100  1
  Mg  Mg58  1  0.00704600  0.75000000  0.77142100  1
  Mg  Mg59  1  0.75000000  0.25000000  0.79284100  1
