# generated using pymatgen
data_Mg8Pd17
_symmetry_space_group_name_H-M   'P 1'
_cell_length_a   4.19057600
_cell_length_b   8.17953600
_cell_length_c   44.31077100
_cell_angle_alpha   90.00000000
_cell_angle_beta   90.00000000
_cell_angle_gamma   90.00000000
_symmetry_Int_Tables_number   1
_chemical_formula_structural   Mg8Pd17
_chemical_formula_sum   'Mg16 Pd34'
_cell_volume   1518.83884651
_cell_formula_units_Z   2
loop_
 _symmetry_equiv_pos_site_id
 _symmetry_equiv_pos_as_xyz
  1  'x, y, z'
loop_
 _atom_site_type_symbol
 _atom_site_label
 _atom_site_symmetry_multiplicity
 _atom_site_fract_x
 _atom_site_fract_y
 _atom_site_fract_z
 _atom_site_occupancy
  Mg  Mg0  1  0.25000000  0.59827400  0.40600700  1
  Mg  Mg1  1  0.75000000  0.40172600  0.32315900  1
  Mg  Mg2  1  0.25000000  0.90172600  0.34350700  1
  Mg  Mg3  1  0.75000000  0.09827400  0.38565900  1
  Mg  Mg4  1  0.25000000  0.59827400  0.53100700  1
  Mg  Mg5  1  0.75000000  0.40172600  0.44815900  1
  Mg  Mg6  1  0.25000000  0.90172600  0.46850700  1
  Mg  Mg7  1  0.75000000  0.09827400  0.51065900  1
  Mg  Mg8  1  0.25000000  0.59827400  0.65600700  1
  Mg  Mg9  1  0.75000000  0.40172600  0.57315900  1
  Mg  Mg10  1  0.25000000  0.90172600  0.59350700  1
  Mg  Mg11  1  0.75000000  0.09827400  0.63565900  1
  Mg  Mg12  1  0.25000000  0.59827400  0.78100700  1
  Mg  Mg13  1  0.75000000  0.40172600  0.69815900  1
  Mg  Mg14  1  0.25000000  0.90172600  0.71850700  1
  Mg  Mg15  1  0.75000000  0.09827400  0.76065900  1
  Pd  Pd16  1  0.25000000  0.26411300  0.29357400  1
  Pd  Pd17  1  0.75000000  0.73588700  0.31059300  1
  Pd  Pd18  1  0.25000000  0.92737900  0.40722100  1
  Pd  Pd19  1  0.75000000  0.07262100  0.32194600  1
  Pd  Pd20  1  0.25000000  0.57262100  0.34472100  1
  Pd  Pd21  1  0.75000000  0.42737900  0.38444600  1
  Pd  Pd22  1  0.25000000  0.26411300  0.41857400  1
  Pd  Pd23  1  0.75000000  0.73588700  0.43559300  1
  Pd  Pd24  1  0.25000000  0.23588700  0.35607400  1
  Pd  Pd25  1  0.75000000  0.76411300  0.37309300  1
  Pd  Pd26  1  0.25000000  0.92737900  0.53222100  1
  Pd  Pd27  1  0.75000000  0.07262100  0.44694600  1
  Pd  Pd28  1  0.25000000  0.57262100  0.46972100  1
  Pd  Pd29  1  0.75000000  0.42737900  0.50944600  1
  Pd  Pd30  1  0.25000000  0.26411300  0.54357400  1
  Pd  Pd31  1  0.75000000  0.73588700  0.56059300  1
  Pd  Pd32  1  0.25000000  0.23588700  0.48107400  1
  Pd  Pd33  1  0.75000000  0.76411300  0.49809300  1
  Pd  Pd34  1  0.25000000  0.92737900  0.65722100  1
  Pd  Pd35  1  0.75000000  0.07262100  0.57194600  1
  Pd  Pd36  1  0.25000000  0.57262100  0.59472100  1
  Pd  Pd37  1  0.75000000  0.42737900  0.63444600  1
  Pd  Pd38  1  0.25000000  0.26411300  0.66857400  1
  Pd  Pd39  1  0.75000000  0.73588700  0.68559300  1
  Pd  Pd40  1  0.25000000  0.23588700  0.60607400  1
  Pd  Pd41  1  0.75000000  0.76411300  0.62309300  1
  Pd  Pd42  1  0.25000000  0.92737900  0.78222100  1
  Pd  Pd43  1  0.75000000  0.07262100  0.69694600  1
  Pd  Pd44  1  0.25000000  0.57262100  0.71972100  1
  Pd  Pd45  1  0.75000000  0.42737900  0.75944600  1
  Pd  Pd46  1  0.25000000  0.26411300  0.79357400  1
  Pd  Pd47  1  0.75000000  0.73588700  0.81059300  1
  Pd  Pd48  1  0.25000000  0.23588700  0.73107400  1
  Pd  Pd49  1  0.75000000  0.76411300  0.74809300  1
