# generated using pymatgen
data_Mg9Al19
_symmetry_space_group_name_H-M   'P 1'
_cell_length_a   8.63345300
_cell_length_b   9.54358600
_cell_length_c   44.07993700
_cell_angle_alpha   90.00000000
_cell_angle_beta   90.00000000
_cell_angle_gamma   90.00000000
_symmetry_Int_Tables_number   1
_chemical_formula_structural   Mg9Al19
_chemical_formula_sum   'Mg36 Al76'
_cell_volume   3631.92678929
_cell_formula_units_Z   4
loop_
 _symmetry_equiv_pos_site_id
 _symmetry_equiv_pos_as_xyz
  1  'x, y, z'
loop_
 _atom_site_type_symbol
 _atom_site_label
 _atom_site_symmetry_multiplicity
 _atom_site_fract_x
 _atom_site_fract_y
 _atom_site_fract_z
 _atom_site_occupancy
  Mg  Mg0  1  0.43291400  0.29467200  0.22916700  1
  Mg  Mg1  1  0.93291400  0.96133900  0.22916700  1
  Mg  Mg2  1  0.56708600  0.96133900  0.22916700  1
  Mg  Mg3  1  0.06708600  0.29467200  0.22916700  1
  Mg  Mg4  1  0.43291400  0.79467200  0.29166700  1
  Mg  Mg5  1  0.93291400  0.46133900  0.29166700  1
  Mg  Mg6  1  0.56708600  0.46133900  0.29166700  1
  Mg  Mg7  1  0.06708600  0.79467200  0.29166700  1
  Mg  Mg8  1  0.43291400  0.29467200  0.35416700  1
  Mg  Mg9  1  0.93291400  0.96133900  0.35416700  1
  Mg  Mg10  1  0.56708600  0.96133900  0.35416700  1
  Mg  Mg11  1  0.06708600  0.29467200  0.35416700  1
  Mg  Mg12  1  0.43291400  0.79467200  0.41666700  1
  Mg  Mg13  1  0.93291400  0.46133900  0.41666700  1
  Mg  Mg14  1  0.56708600  0.46133900  0.41666700  1
  Mg  Mg15  1  0.06708600  0.79467200  0.41666700  1
  Mg  Mg16  1  0.43291400  0.29467200  0.47916700  1
  Mg  Mg17  1  0.93291400  0.96133900  0.47916700  1
  Mg  Mg18  1  0.56708600  0.96133900  0.47916700  1
  Mg  Mg19  1  0.06708600  0.29467200  0.47916700  1
  Mg  Mg20  1  0.43291400  0.79467200  0.54166700  1
  Mg  Mg21  1  0.93291400  0.46133900  0.54166700  1
  Mg  Mg22  1  0.56708600  0.46133900  0.54166700  1
  Mg  Mg23  1  0.06708600  0.79467200  0.54166700  1
  Mg  Mg24  1  0.43291400  0.29467200  0.60416700  1
  Mg  Mg25  1  0.93291400  0.96133900  0.60416700  1
  Mg  Mg26  1  0.56708600  0.96133900  0.60416700  1
  Mg  Mg27  1  0.06708600  0.29467200  0.60416700  1
  Mg  Mg28  1  0.43291400  0.79467200  0.66666700  1
  Mg  Mg29  1  0.93291400  0.46133900  0.66666700  1
  Mg  Mg30  1  0.56708600  0.46133900  0.66666700  1
  Mg  Mg31  1  0.06708600  0.79467200  0.66666700  1
  Mg  Mg32  1  0.43291400  0.29467200  0.72916700  1
  Mg  Mg33  1  0.93291400  0.96133900  0.72916700  1
  Mg  Mg34  1  0.56708600  0.96133900  0.72916700  1
  Mg  Mg35  1  0.06708600  0.29467200  0.72916700  1
  Al  Al36  1  0.50000000  0.62800600  0.22916700  1
  Al  Al37  1  1.00000000  0.62800600  0.22916700  1
  Al  Al38  1  0.75000000  0.71334300  0.19716500  1
  Al  Al39  1  0.25000000  0.54266900  0.19716500  1
  Al  Al40  1  0.25000000  0.79868000  0.22916700  1
  Al  Al41  1  0.75000000  0.45733100  0.22916700  1
  Al  Al42  1  0.75000000  0.21334300  0.19866800  1
  Al  Al43  1  0.25000000  0.04266900  0.19866800  1
  Al  Al44  1  0.50000000  0.12800600  0.29166700  1
  Al  Al45  1  0.00000000  0.12800600  0.29166700  1
  Al  Al46  1  0.75000000  0.21334300  0.25966500  1
  Al  Al47  1  0.25000000  0.04266900  0.25966500  1
  Al  Al48  1  0.25000000  0.29868000  0.29166700  1
  Al  Al49  1  0.75000000  0.95733100  0.29166700  1
  Al  Al50  1  0.75000000  0.71334300  0.26116800  1
  Al  Al51  1  0.25000000  0.54266900  0.26116800  1
  Al  Al52  1  0.50000000  0.62800600  0.35416700  1
  Al  Al53  1  0.00000000  0.62800600  0.35416700  1
  Al  Al54  1  0.75000000  0.71334300  0.32216500  1
  Al  Al55  1  0.25000000  0.54266900  0.32216500  1
  Al  Al56  1  0.25000000  0.79868000  0.35416700  1
  Al  Al57  1  0.75000000  0.45733100  0.35416700  1
  Al  Al58  1  0.75000000  0.21334300  0.32366800  1
  Al  Al59  1  0.25000000  0.04266900  0.32366800  1
  Al  Al60  1  0.50000000  0.12800600  0.41666700  1
  Al  Al61  1  0.00000000  0.12800600  0.41666700  1
  Al  Al62  1  0.75000000  0.21334300  0.38466500  1
  Al  Al63  1  0.25000000  0.04266900  0.38466500  1
  Al  Al64  1  0.25000000  0.29868000  0.41666700  1
  Al  Al65  1  0.75000000  0.95733100  0.41666700  1
  Al  Al66  1  0.75000000  0.71334300  0.38616800  1
  Al  Al67  1  0.25000000  0.54266900  0.38616800  1
  Al  Al68  1  0.50000000  0.62800600  0.47916700  1
  Al  Al69  1  0.00000000  0.62800600  0.47916700  1
  Al  Al70  1  0.75000000  0.71334300  0.44716500  1
  Al  Al71  1  0.25000000  0.54266900  0.44716500  1
  Al  Al72  1  0.25000000  0.79868000  0.47916700  1
  Al  Al73  1  0.75000000  0.45733100  0.47916700  1
  Al  Al74  1  0.75000000  0.21334300  0.44866800  1
  Al  Al75  1  0.25000000  0.04266900  0.44866800  1
  Al  Al76  1  0.50000000  0.12800600  0.54166700  1
  Al  Al77  1  0.00000000  0.12800600  0.54166700  1
  Al  Al78  1  0.75000000  0.21334300  0.50966500  1
  Al  Al79  1  0.25000000  0.04266900  0.50966500  1
  Al  Al80  1  0.25000000  0.29868000  0.54166700  1
  Al  Al81  1  0.75000000  0.95733100  0.54166700  1
  Al  Al82  1  0.75000000  0.71334300  0.51116800  1
  Al  Al83  1  0.25000000  0.54266900  0.51116800  1
  Al  Al84  1  0.50000000  0.62800600  0.60416700  1
  Al  Al85  1  0.00000000  0.62800600  0.60416700  1
  Al  Al86  1  0.75000000  0.71334300  0.57216500  1
  Al  Al87  1  0.25000000  0.54266900  0.57216500  1
  Al  Al88  1  0.25000000  0.79868000  0.60416700  1
  Al  Al89  1  0.75000000  0.45733100  0.60416700  1
  Al  Al90  1  0.75000000  0.21334300  0.57366800  1
  Al  Al91  1  0.25000000  0.04266900  0.57366800  1
  Al  Al92  1  0.50000000  0.12800600  0.66666700  1
  Al  Al93  1  0.00000000  0.12800600  0.66666700  1
  Al  Al94  1  0.75000000  0.21334300  0.63466500  1
  Al  Al95  1  0.25000000  0.04266900  0.63466500  1
  Al  Al96  1  0.25000000  0.29868000  0.66666700  1
  Al  Al97  1  0.75000000  0.95733100  0.66666700  1
  Al  Al98  1  0.75000000  0.71334300  0.63616800  1
  Al  Al99  1  0.25000000  0.54266900  0.63616800  1
  Al  Al100  1  0.50000000  0.62800600  0.72916700  1
  Al  Al101  1  1.00000000  0.62800600  0.72916700  1
  Al  Al102  1  0.75000000  0.71334300  0.69716500  1
  Al  Al103  1  0.25000000  0.54266900  0.69716500  1
  Al  Al104  1  0.25000000  0.79868000  0.72916700  1
  Al  Al105  1  0.75000000  0.45733100  0.72916700  1
  Al  Al106  1  0.75000000  0.21334300  0.69866800  1
  Al  Al107  1  0.25000000  0.04266900  0.69866800  1
  Al  Al108  1  0.75000000  0.21334300  0.75966500  1
  Al  Al109  1  0.25000000  0.04266900  0.75966500  1
  Al  Al110  1  0.75000000  0.71334300  0.76116800  1
  Al  Al111  1  0.25000000  0.54266900  0.76116800  1
