# generated using pymatgen
data_Mg97Pd36
_symmetry_space_group_name_H-M   'P 1'
_cell_length_a   8.83883700
_cell_length_b   11.93708038
_cell_length_c   44.35540600
_cell_angle_alpha   87.49946255
_cell_angle_beta   90.00000000
_cell_angle_gamma   68.27044156
_symmetry_Int_Tables_number   1
_chemical_formula_structural   Mg97Pd36
_chemical_formula_sum   'Mg97 Pd36'
_cell_volume   4342.58916709
_cell_formula_units_Z   1
loop_
 _symmetry_equiv_pos_site_id
 _symmetry_equiv_pos_as_xyz
  1  'x, y, z'
loop_
 _atom_site_type_symbol
 _atom_site_label
 _atom_site_symmetry_multiplicity
 _atom_site_fract_x
 _atom_site_fract_y
 _atom_site_fract_z
 _atom_site_occupancy
  Mg  Mg0  1  0.46811800  0.48911400  0.26485700  1
  Mg  Mg1  1  0.14910500  0.70178900  0.21168800  1
  Mg  Mg2  1  0.04276800  0.48911400  0.26485700  1
  Mg  Mg3  1  0.35624600  0.86215800  0.20389300  1
  Mg  Mg4  1  0.67525900  0.64948300  0.25706200  1
  Mg  Mg5  1  0.78159600  0.86215800  0.20389300  1
  Mg  Mg6  1  0.26354300  0.04756400  0.25024500  1
  Mg  Mg7  1  0.58255500  0.83488900  0.30341300  1
  Mg  Mg8  1  0.68889300  0.04756400  0.25024500  1
  Mg  Mg9  1  0.56082100  0.30370800  0.21850500  1
  Mg  Mg10  1  0.99180800  0.01638300  0.29033700  1
  Mg  Mg11  1  0.13547100  0.30370800  0.21850500  1
  Mg  Mg12  1  0.90646000  0.57012800  0.19825200  1
  Mg  Mg13  1  0.36917400  0.26165200  0.27537100  1
  Mg  Mg14  1  0.52341200  0.57012800  0.19825200  1
  Mg  Mg15  1  0.91790400  0.78114400  0.27049800  1
  Mg  Mg16  1  0.45519000  0.08962000  0.19337900  1
  Mg  Mg17  1  0.30095200  0.78114400  0.27049800  1
  Mg  Mg18  1  0.78718200  0.42563600  0.29687500  1
  Mg  Mg19  1  0.91218200  0.17563600  0.23437500  1
  Mg  Mg20  1  0.21811800  0.98911400  0.38985700  1
  Mg  Mg21  1  0.89910500  0.20178900  0.33668800  1
  Mg  Mg22  1  0.79276800  0.98911400  0.38985700  1
  Mg  Mg23  1  0.10624600  0.36215800  0.32889300  1
  Mg  Mg24  1  0.42525900  0.14948300  0.38206200  1
  Mg  Mg25  1  0.53159600  0.36215800  0.32889300  1
  Mg  Mg26  1  0.01354300  0.54756400  0.37524500  1
  Mg  Mg27  1  0.33255500  0.33488900  0.42841300  1
  Mg  Mg28  1  0.43889300  0.54756400  0.37524500  1
  Mg  Mg29  1  0.31082100  0.80370800  0.34350500  1
  Mg  Mg30  1  0.74180800  0.51638300  0.41533700  1
  Mg  Mg31  1  0.88547100  0.80370800  0.34350500  1
  Mg  Mg32  1  0.65646000  0.07012800  0.32325200  1
  Mg  Mg33  1  0.11917400  0.76165200  0.40037100  1
  Mg  Mg34  1  0.27341200  0.07012800  0.32325200  1
  Mg  Mg35  1  0.66790400  0.28114400  0.39549800  1
  Mg  Mg36  1  0.20519000  0.58962000  0.31837900  1
  Mg  Mg37  1  0.05095200  0.28114400  0.39549800  1
  Mg  Mg38  1  0.53718200  0.92563600  0.42187500  1
  Mg  Mg39  1  0.66218200  0.67563600  0.35937500  1
  Mg  Mg40  1  0.96811800  0.48911400  0.51485700  1
  Mg  Mg41  1  0.64910500  0.70178900  0.46168800  1
  Mg  Mg42  1  0.54276800  0.48911400  0.51485700  1
  Mg  Mg43  1  0.85624600  0.86215800  0.45389300  1
  Mg  Mg44  1  0.17525900  0.64948300  0.50706200  1
  Mg  Mg45  1  0.28159600  0.86215800  0.45389300  1
  Mg  Mg46  1  0.76354300  0.04756400  0.50024500  1
  Mg  Mg47  1  0.08255500  0.83488900  0.55341300  1
  Mg  Mg48  1  0.18889300  0.04756400  0.50024500  1
  Mg  Mg49  1  0.06082100  0.30370800  0.46850500  1
  Mg  Mg50  1  0.49180800  0.01638300  0.54033700  1
  Mg  Mg51  1  0.63547100  0.30370800  0.46850500  1
  Mg  Mg52  1  0.40646000  0.57012800  0.44825200  1
  Mg  Mg53  1  0.86917400  0.26165200  0.52537100  1
  Mg  Mg54  1  0.02341200  0.57012800  0.44825200  1
  Mg  Mg55  1  0.41790400  0.78114400  0.52049800  1
  Mg  Mg56  1  0.95519000  0.08962000  0.44337900  1
  Mg  Mg57  1  0.80095200  0.78114400  0.52049800  1
  Mg  Mg58  1  0.28718200  0.42563600  0.54687500  1
  Mg  Mg59  1  0.41218200  0.17563600  0.48437500  1
  Mg  Mg60  1  0.71811800  0.98911400  0.63985700  1
  Mg  Mg61  1  0.39910500  0.20178900  0.58668800  1
  Mg  Mg62  1  0.29276800  0.98911400  0.63985700  1
  Mg  Mg63  1  0.60624600  0.36215800  0.57889300  1
  Mg  Mg64  1  0.92525900  0.14948300  0.63206200  1
  Mg  Mg65  1  0.03159600  0.36215800  0.57889300  1
  Mg  Mg66  1  0.51354300  0.54756400  0.62524500  1
  Mg  Mg67  1  0.83255500  0.33488900  0.67841300  1
  Mg  Mg68  1  0.93889300  0.54756400  0.62524500  1
  Mg  Mg69  1  0.81082100  0.80370800  0.59350500  1
  Mg  Mg70  1  0.24180800  0.51638300  0.66533700  1
  Mg  Mg71  1  0.38547100  0.80370800  0.59350500  1
  Mg  Mg72  1  0.15646000  0.07012800  0.57325200  1
  Mg  Mg73  1  0.61917400  0.76165200  0.65037100  1
  Mg  Mg74  1  0.77341200  0.07012800  0.57325200  1
  Mg  Mg75  1  0.16790400  0.28114400  0.64549800  1
  Mg  Mg76  1  0.70519000  0.58962000  0.56837900  1
  Mg  Mg77  1  0.55095200  0.28114400  0.64549800  1
  Mg  Mg78  1  0.03718200  0.92563600  0.67187500  1
  Mg  Mg79  1  0.16218200  0.67563600  0.60937500  1
  Mg  Mg80  1  0.46811800  0.48911400  0.76485700  1
  Mg  Mg81  1  0.14910500  0.70178900  0.71168800  1
  Mg  Mg82  1  0.04276800  0.48911400  0.76485700  1
  Mg  Mg83  1  0.35624600  0.86215800  0.70389300  1
  Mg  Mg84  1  0.67525900  0.64948300  0.75706200  1
  Mg  Mg85  1  0.78159600  0.86215800  0.70389300  1
  Mg  Mg86  1  0.26354300  0.04756400  0.75024500  1
  Mg  Mg87  1  0.68889300  0.04756400  0.75024500  1
  Mg  Mg88  1  0.56082100  0.30370800  0.71850500  1
  Mg  Mg89  1  0.13547100  0.30370800  0.71850500  1
  Mg  Mg90  1  0.90646000  0.57012800  0.69825200  1
  Mg  Mg91  1  0.36917400  0.26165200  0.77537100  1
  Mg  Mg92  1  0.52341200  0.57012800  0.69825200  1
  Mg  Mg93  1  0.91790400  0.78114400  0.77049800  1
  Mg  Mg94  1  0.45519000  0.08962000  0.69337900  1
  Mg  Mg95  1  0.30095200  0.78114400  0.77049800  1
  Mg  Mg96  1  0.91218200  0.17563600  0.73437500  1
  Pd  Pd97  1  0.06769100  0.23834800  0.28119700  1
  Pd  Pd98  1  0.78739400  0.42521300  0.23448100  1
  Pd  Pd99  1  0.69396100  0.23834800  0.28119700  1
  Pd  Pd100  1  0.50667300  0.61292400  0.31255300  1
  Pd  Pd101  1  0.03697000  0.92606000  0.23426900  1
  Pd  Pd102  1  0.88040300  0.61292400  0.31255300  1
  Pd  Pd103  1  0.26634900  0.46730300  0.22395800  1
  Pd  Pd104  1  0.55801500  0.88396900  0.24479200  1
  Pd  Pd105  1  0.81769100  0.73834800  0.40619700  1
  Pd  Pd106  1  0.53739400  0.92521300  0.35948100  1
  Pd  Pd107  1  0.44396100  0.73834800  0.40619700  1
  Pd  Pd108  1  0.25667300  0.11292400  0.43755300  1
  Pd  Pd109  1  0.78697000  0.42606000  0.35926900  1
  Pd  Pd110  1  0.63040300  0.11292400  0.43755300  1
  Pd  Pd111  1  0.01634900  0.96730300  0.34895800  1
  Pd  Pd112  1  0.30801500  0.38396900  0.36979200  1
  Pd  Pd113  1  0.56769100  0.23834800  0.53119700  1
  Pd  Pd114  1  0.28739400  0.42521300  0.48448100  1
  Pd  Pd115  1  0.19396100  0.23834800  0.53119700  1
  Pd  Pd116  1  0.00667300  0.61292400  0.56255300  1
  Pd  Pd117  1  0.53697000  0.92606000  0.48426900  1
  Pd  Pd118  1  0.38040300  0.61292400  0.56255300  1
  Pd  Pd119  1  0.76634900  0.46730300  0.47395800  1
  Pd  Pd120  1  0.05801500  0.88396900  0.49479200  1
  Pd  Pd121  1  0.31769100  0.73834800  0.65619700  1
  Pd  Pd122  1  0.03739400  0.92521300  0.60948100  1
  Pd  Pd123  1  0.94396100  0.73834800  0.65619700  1
  Pd  Pd124  1  0.75667300  0.11292400  0.68755300  1
  Pd  Pd125  1  0.28697000  0.42606000  0.60926900  1
  Pd  Pd126  1  0.13040300  0.11292400  0.68755300  1
  Pd  Pd127  1  0.51634900  0.96730300  0.59895800  1
  Pd  Pd128  1  0.80801500  0.38396900  0.61979200  1
  Pd  Pd129  1  0.78739400  0.42521300  0.73448100  1
  Pd  Pd130  1  0.03697000  0.92606000  0.73426900  1
  Pd  Pd131  1  0.26634900  0.46730300  0.72395800  1
  Pd  Pd132  1  0.55801500  0.88396900  0.74479200  1
