# generated using pymatgen
data_Mg27Zr52
_symmetry_space_group_name_H-M   'P 1'
_cell_length_a   3.23467038
_cell_length_b   23.65093053
_cell_length_c   42.05072000
_cell_angle_alpha   83.35449517
_cell_angle_beta   87.79577957
_cell_angle_gamma   93.92115108
_symmetry_Int_Tables_number   1
_chemical_formula_structural   Mg27Zr52
_chemical_formula_sum   'Mg27 Zr52'
_cell_volume   3184.41731786
_cell_formula_units_Z   1
loop_
 _symmetry_equiv_pos_site_id
 _symmetry_equiv_pos_as_xyz
  1  'x, y, z'
loop_
 _atom_site_type_symbol
 _atom_site_label
 _atom_site_symmetry_multiplicity
 _atom_site_fract_x
 _atom_site_fract_y
 _atom_site_fract_z
 _atom_site_occupancy
  Mg  Mg0  1  0.49707300  0.00000000  0.26296300  1
  Mg  Mg1  1  0.18596200  0.33333300  0.21851900  1
  Mg  Mg2  1  0.34151800  0.66666700  0.24074100  1
  Mg  Mg3  1  0.96374000  0.00000000  0.32963000  1
  Mg  Mg4  1  0.65262900  0.33333300  0.28518500  1
  Mg  Mg5  1  0.80818400  0.66666700  0.30740700  1
  Mg  Mg6  1  0.43040600  0.00000000  0.39629600  1
  Mg  Mg7  1  0.11929500  0.33333300  0.35185200  1
  Mg  Mg8  1  0.27485100  0.66666700  0.37407400  1
  Mg  Mg9  1  0.89707300  0.00000000  0.46296300  1
  Mg  Mg10  1  0.58596200  0.33333300  0.41851900  1
  Mg  Mg11  1  0.74151800  0.66666700  0.44074100  1
  Mg  Mg12  1  0.36374000  0.00000000  0.52963000  1
  Mg  Mg13  1  0.05262900  0.33333300  0.48518500  1
  Mg  Mg14  1  0.20818400  0.66666700  0.50740700  1
  Mg  Mg15  1  0.83040600  0.00000000  0.59629600  1
  Mg  Mg16  1  0.51929500  0.33333300  0.55185200  1
  Mg  Mg17  1  0.67485100  0.66666700  0.57407400  1
  Mg  Mg18  1  0.29707300  0.00000000  0.66296300  1
  Mg  Mg19  1  0.98596200  0.33333300  0.61851900  1
  Mg  Mg20  1  0.14151800  0.66666700  0.64074100  1
  Mg  Mg21  1  0.76374000  0.00000000  0.72963000  1
  Mg  Mg22  1  0.45262900  0.33333300  0.68518500  1
  Mg  Mg23  1  0.60818400  0.66666700  0.70740700  1
  Mg  Mg24  1  0.23040600  0.00000000  0.79629600  1
  Mg  Mg25  1  0.91929500  0.33333300  0.75185200  1
  Mg  Mg26  1  0.07485100  0.66666700  0.77407400  1
  Zr  Zr27  1  0.45848200  0.88597600  0.22612000  1
  Zr  Zr28  1  0.61403800  0.21930900  0.24834200  1
  Zr  Zr29  1  0.06899700  0.11402400  0.23313900  1
  Zr  Zr30  1  0.22455300  0.44735800  0.25536100  1
  Zr  Zr31  1  0.92514900  0.88597600  0.29278700  1
  Zr  Zr32  1  0.38010800  0.78069100  0.27758400  1
  Zr  Zr33  1  0.08070500  0.21930900  0.31500900  1
  Zr  Zr34  1  0.53566400  0.11402400  0.29980600  1
  Zr  Zr35  1  0.76959400  0.55264200  0.27056500  1
  Zr  Zr36  1  0.69121900  0.44735800  0.32202800  1
  Zr  Zr37  1  0.39181600  0.88597600  0.35945300  1
  Zr  Zr38  1  0.84677500  0.78069100  0.34425000  1
  Zr  Zr39  1  0.54737100  0.21930900  0.38167600  1
  Zr  Zr40  1  0.00233000  0.11402400  0.36647200  1
  Zr  Zr41  1  0.23626000  0.55264200  0.33723100  1
  Zr  Zr42  1  0.15788600  0.44735800  0.38869500  1
  Zr  Zr43  1  0.85848200  0.88597600  0.42612000  1
  Zr  Zr44  1  0.31344200  0.78069100  0.41091700  1
  Zr  Zr45  1  0.01403800  0.21930900  0.44834200  1
  Zr  Zr46  1  0.46899700  0.11402400  0.43313900  1
  Zr  Zr47  1  0.70292700  0.55264200  0.40389800  1
  Zr  Zr48  1  0.62455300  0.44735800  0.45536100  1
  Zr  Zr49  1  0.32514900  0.88597600  0.49278700  1
  Zr  Zr50  1  0.78010800  0.78069100  0.47758400  1
  Zr  Zr51  1  0.48070500  0.21930900  0.51500900  1
  Zr  Zr52  1  0.93566400  0.11402400  0.49980600  1
  Zr  Zr53  1  0.16959400  0.55264200  0.47056500  1
  Zr  Zr54  1  0.09121900  0.44735800  0.52202800  1
  Zr  Zr55  1  0.79181600  0.88597600  0.55945300  1
  Zr  Zr56  1  0.24677500  0.78069100  0.54425000  1
  Zr  Zr57  1  0.94737100  0.21930900  0.58167600  1
  Zr  Zr58  1  0.40233000  0.11402400  0.56647200  1
  Zr  Zr59  1  0.63626000  0.55264200  0.53723100  1
  Zr  Zr60  1  0.55788600  0.44735800  0.58869500  1
  Zr  Zr61  1  0.25848200  0.88597600  0.62612000  1
  Zr  Zr62  1  0.71344200  0.78069100  0.61091700  1
  Zr  Zr63  1  0.41403800  0.21930900  0.64834200  1
  Zr  Zr64  1  0.86899700  0.11402400  0.63313900  1
  Zr  Zr65  1  0.10292700  0.55264200  0.60389800  1
  Zr  Zr66  1  0.02455300  0.44735800  0.65536100  1
  Zr  Zr67  1  0.72514900  0.88597600  0.69278700  1
  Zr  Zr68  1  0.18010800  0.78069100  0.67758400  1
  Zr  Zr69  1  0.88070500  0.21930900  0.71500900  1
  Zr  Zr70  1  0.33566400  0.11402400  0.69980600  1
  Zr  Zr71  1  0.56959400  0.55264200  0.67056500  1
  Zr  Zr72  1  0.49121900  0.44735800  0.72202800  1
  Zr  Zr73  1  0.19181600  0.88597600  0.75945300  1
  Zr  Zr74  1  0.64677500  0.78069100  0.74425000  1
  Zr  Zr75  1  0.34737100  0.21930900  0.78167600  1
  Zr  Zr76  1  0.80233000  0.11402400  0.76647200  1
  Zr  Zr77  1  0.03626000  0.55264200  0.73723100  1
  Zr  Zr78  1  0.95788600  0.44735800  0.78869500  1
