# generated using pymatgen
data_Mg3Te7
_symmetry_space_group_name_H-M   'P 1'
_cell_length_a   10.05447285
_cell_length_b   10.05447185
_cell_length_c   45.52356000
_cell_angle_alpha   83.65980636
_cell_angle_beta   83.65980700
_cell_angle_gamma   59.99999954
_symmetry_Int_Tables_number   1
_chemical_formula_structural   Mg3Te7
_chemical_formula_sum   'Mg24 Te56'
_cell_volume   3952.98842470
_cell_formula_units_Z   8
loop_
 _symmetry_equiv_pos_site_id
 _symmetry_equiv_pos_as_xyz
  1  'x, y, z'
loop_
 _atom_site_type_symbol
 _atom_site_label
 _atom_site_symmetry_multiplicity
 _atom_site_fract_x
 _atom_site_fract_y
 _atom_site_fract_z
 _atom_site_occupancy
  Mg  Mg0  1  0.66545100  0.66545100  0.25757600  1
  Mg  Mg1  1  0.66545100  0.16545100  0.25757600  1
  Mg  Mg2  1  0.16545100  0.66545100  0.25757600  1
  Mg  Mg3  1  0.16545100  0.16545100  0.25757600  1
  Mg  Mg4  1  0.30181500  0.30181500  0.34848500  1
  Mg  Mg5  1  0.30181500  0.80181500  0.34848500  1
  Mg  Mg6  1  0.80181500  0.30181500  0.34848500  1
  Mg  Mg7  1  0.80181500  0.80181500  0.34848500  1
  Mg  Mg8  1  0.93817800  0.93817800  0.43939400  1
  Mg  Mg9  1  0.93817800  0.43817800  0.43939400  1
  Mg  Mg10  1  0.43817800  0.93817800  0.43939400  1
  Mg  Mg11  1  0.43817800  0.43817800  0.43939400  1
  Mg  Mg12  1  0.57454200  0.57454200  0.53030300  1
  Mg  Mg13  1  0.57454200  0.07454200  0.53030300  1
  Mg  Mg14  1  0.07454200  0.57454200  0.53030300  1
  Mg  Mg15  1  0.07454200  0.07454200  0.53030300  1
  Mg  Mg16  1  0.21090500  0.21090500  0.62121200  1
  Mg  Mg17  1  0.21090500  0.71090500  0.62121200  1
  Mg  Mg18  1  0.71090500  0.21090500  0.62121200  1
  Mg  Mg19  1  0.71090500  0.71090500  0.62121200  1
  Mg  Mg20  1  0.84726900  0.84726900  0.71212100  1
  Mg  Mg21  1  0.84726900  0.34726900  0.71212100  1
  Mg  Mg22  1  0.34726900  0.84726900  0.71212100  1
  Mg  Mg23  1  0.34726900  0.34726900  0.71212100  1
  Te  Te24  1  0.35757300  0.35757300  0.18121000  1
  Te  Te25  1  0.41939500  0.69271500  0.22242500  1
  Te  Te26  1  0.91939500  0.41939500  0.22242500  1
  Te  Te27  1  0.69271500  0.91939500  0.22242500  1
  Te  Te28  1  0.33696600  0.33696600  0.24303200  1
  Te  Te29  1  0.27514400  0.00182400  0.20181800  1
  Te  Te30  1  0.77514400  0.27514400  0.20181800  1
  Te  Te31  1  0.00182400  0.77514400  0.20181800  1
  Te  Te32  1  0.99393600  0.99393600  0.27211900  1
  Te  Te33  1  0.05575800  0.32907800  0.31333400  1
  Te  Te34  1  0.55575800  0.05575800  0.31333400  1
  Te  Te35  1  0.32907800  0.55575800  0.31333400  1
  Te  Te36  1  0.97332900  0.97332900  0.33394100  1
  Te  Te37  1  0.91150700  0.63818700  0.29272700  1
  Te  Te38  1  0.41150700  0.91150700  0.29272700  1
  Te  Te39  1  0.63818700  0.41150700  0.29272700  1
  Te  Te40  1  0.63030000  0.63030000  0.36302900  1
  Te  Te41  1  0.69212200  0.96544200  0.40424300  1
  Te  Te42  1  0.19212200  0.69212200  0.40424300  1
  Te  Te43  1  0.96544200  0.19212200  0.40424300  1
  Te  Te44  1  0.60969300  0.60969300  0.42485000  1
  Te  Te45  1  0.54787100  0.27455100  0.38363600  1
  Te  Te46  1  0.04787100  0.54787100  0.38363600  1
  Te  Te47  1  0.27455100  0.04787100  0.38363600  1
  Te  Te48  1  0.26666400  0.26666400  0.45393800  1
  Te  Te49  1  0.32848500  0.60180600  0.49515200  1
  Te  Te50  1  0.82848500  0.32848500  0.49515200  1
  Te  Te51  1  0.60180600  0.82848500  0.49515200  1
  Te  Te52  1  0.24605600  0.24605600  0.51575900  1
  Te  Te53  1  0.18423500  0.91091400  0.47454500  1
  Te  Te54  1  0.68423500  0.18423500  0.47454500  1
  Te  Te55  1  0.91091400  0.68423500  0.47454500  1
  Te  Te56  1  0.90302700  0.90302700  0.54484700  1
  Te  Te57  1  0.96484900  0.23816900  0.58606100  1
  Te  Te58  1  0.46484900  0.96484900  0.58606100  1
  Te  Te59  1  0.23816900  0.46484900  0.58606100  1
  Te  Te60  1  0.88242000  0.88242000  0.60666800  1
  Te  Te61  1  0.82059800  0.54727800  0.56545400  1
  Te  Te62  1  0.32059800  0.82059800  0.56545400  1
  Te  Te63  1  0.54727800  0.32059800  0.56545400  1
  Te  Te64  1  0.53939100  0.53939100  0.63575600  1
  Te  Te65  1  0.60121300  0.87453300  0.67697000  1
  Te  Te66  1  0.10121300  0.60121300  0.67697000  1
  Te  Te67  1  0.87453300  0.10121300  0.67697000  1
  Te  Te68  1  0.51878400  0.51878400  0.69757800  1
  Te  Te69  1  0.45696200  0.18364200  0.65636300  1
  Te  Te70  1  0.95696200  0.45696200  0.65636300  1
  Te  Te71  1  0.18364200  0.95696200  0.65636300  1
  Te  Te72  1  0.17575500  0.17575500  0.72666500  1
  Te  Te73  1  0.23757600  0.51089700  0.76787900  1
  Te  Te74  1  0.73757600  0.23757600  0.76787900  1
  Te  Te75  1  0.51089700  0.73757600  0.76787900  1
  Te  Te76  1  0.15514700  0.15514700  0.78848700  1
  Te  Te77  1  0.09332600  0.82000500  0.74727200  1
  Te  Te78  1  0.59332600  0.09332600  0.74727200  1
  Te  Te79  1  0.82000500  0.59332600  0.74727200  1
