# generated using pymatgen
data_Tb3Mg
_symmetry_space_group_name_H-M   'P 1'
_cell_length_a   5.01610200
_cell_length_b   9.55408700
_cell_length_c   40.12881600
_cell_angle_alpha   90.00000000
_cell_angle_beta   90.00000000
_cell_angle_gamma   90.00000000
_symmetry_Int_Tables_number   1
_chemical_formula_structural   Tb3Mg
_chemical_formula_sum   'Tb30 Mg10'
_cell_volume   1923.14440975
_cell_formula_units_Z   10
loop_
 _symmetry_equiv_pos_site_id
 _symmetry_equiv_pos_as_xyz
  1  'x, y, z'
loop_
 _atom_site_type_symbol
 _atom_site_label
 _atom_site_symmetry_multiplicity
 _atom_site_fract_x
 _atom_site_fract_y
 _atom_site_fract_z
 _atom_site_occupancy
  Tb  Tb0  1  0.25000000  0.23699000  0.21875000  1
  Tb  Tb1  1  0.75000000  0.50000000  0.21875000  1
  Tb  Tb2  1  0.25000000  0.76301000  0.21875000  1
  Tb  Tb3  1  0.75000000  0.23699000  0.28125000  1
  Tb  Tb4  1  0.25000000  0.50000000  0.28125000  1
  Tb  Tb5  1  0.75000000  0.76301000  0.28125000  1
  Tb  Tb6  1  0.25000000  0.23699000  0.34375000  1
  Tb  Tb7  1  0.75000000  0.50000000  0.34375000  1
  Tb  Tb8  1  0.25000000  0.76301000  0.34375000  1
  Tb  Tb9  1  0.75000000  0.23699000  0.40625000  1
  Tb  Tb10  1  0.25000000  0.50000000  0.40625000  1
  Tb  Tb11  1  0.75000000  0.76301000  0.40625000  1
  Tb  Tb12  1  0.25000000  0.23699000  0.46875000  1
  Tb  Tb13  1  0.75000000  0.50000000  0.46875000  1
  Tb  Tb14  1  0.25000000  0.76301000  0.46875000  1
  Tb  Tb15  1  0.75000000  0.23699000  0.53125000  1
  Tb  Tb16  1  0.25000000  0.50000000  0.53125000  1
  Tb  Tb17  1  0.75000000  0.76301000  0.53125000  1
  Tb  Tb18  1  0.25000000  0.23699000  0.59375000  1
  Tb  Tb19  1  0.75000000  0.50000000  0.59375000  1
  Tb  Tb20  1  0.25000000  0.76301000  0.59375000  1
  Tb  Tb21  1  0.75000000  0.23699000  0.65625000  1
  Tb  Tb22  1  0.25000000  0.50000000  0.65625000  1
  Tb  Tb23  1  0.75000000  0.76301000  0.65625000  1
  Tb  Tb24  1  0.25000000  0.23699000  0.71875000  1
  Tb  Tb25  1  0.75000000  0.50000000  0.71875000  1
  Tb  Tb26  1  0.25000000  0.76301000  0.71875000  1
  Tb  Tb27  1  0.75000000  0.23699000  0.78125000  1
  Tb  Tb28  1  0.25000000  0.50000000  0.78125000  1
  Tb  Tb29  1  0.75000000  0.76301000  0.78125000  1
  Mg  Mg30  1  0.75000000  0.00000000  0.21875000  1
  Mg  Mg31  1  0.25000000  0.00000000  0.28125000  1
  Mg  Mg32  1  0.75000000  0.00000000  0.34375000  1
  Mg  Mg33  1  0.25000000  0.00000000  0.40625000  1
  Mg  Mg34  1  0.75000000  0.00000000  0.46875000  1
  Mg  Mg35  1  0.25000000  0.00000000  0.53125000  1
  Mg  Mg36  1  0.75000000  0.00000000  0.59375000  1
  Mg  Mg37  1  0.25000000  0.00000000  0.65625000  1
  Mg  Mg38  1  0.75000000  0.00000000  0.71875000  1
  Mg  Mg39  1  0.25000000  0.00000000  0.78125000  1
