# generated using pymatgen
data_Mg4Be49
_symmetry_space_group_name_H-M   'P 1'
_cell_length_a   7.13400300
_cell_length_b   10.08900300
_cell_length_c   49.93801900
_cell_angle_alpha   90.00000000
_cell_angle_beta   90.00000000
_cell_angle_gamma   90.00000000
_symmetry_Int_Tables_number   1
_chemical_formula_structural   Mg4Be49
_chemical_formula_sum   'Mg16 Be196'
_cell_volume   3594.28780236
_cell_formula_units_Z   4
loop_
 _symmetry_equiv_pos_site_id
 _symmetry_equiv_pos_as_xyz
  1  'x, y, z'
loop_
 _atom_site_type_symbol
 _atom_site_label
 _atom_site_symmetry_multiplicity
 _atom_site_fract_x
 _atom_site_fract_y
 _atom_site_fract_z
 _atom_site_occupancy
  Mg  Mg0  1  0.64007600  0.25000000  0.26530600  1
  Mg  Mg1  1  0.14007600  0.25000000  0.33673500  1
  Mg  Mg2  1  0.14007600  0.75000000  0.33673500  1
  Mg  Mg3  1  0.64007600  0.75000000  0.26530600  1
  Mg  Mg4  1  0.64007600  0.25000000  0.40816300  1
  Mg  Mg5  1  0.14007600  0.25000000  0.47959200  1
  Mg  Mg6  1  0.14007600  0.75000000  0.47959200  1
  Mg  Mg7  1  0.64007600  0.75000000  0.40816300  1
  Mg  Mg8  1  0.64007600  0.25000000  0.55102000  1
  Mg  Mg9  1  0.14007600  0.25000000  0.62244900  1
  Mg  Mg10  1  0.14007600  0.75000000  0.62244900  1
  Mg  Mg11  1  0.64007600  0.75000000  0.55102000  1
  Mg  Mg12  1  0.64007600  0.25000000  0.69387800  1
  Mg  Mg13  1  0.14007600  0.25000000  0.76530600  1
  Mg  Mg14  1  0.14007600  0.75000000  0.76530600  1
  Mg  Mg15  1  0.64007600  0.75000000  0.69387800  1
  Be  Be16  1  0.14007600  0.00000000  0.26530600  1
  Be  Be17  1  0.64007600  0.00000000  0.33673500  1
  Be  Be18  1  0.46206600  0.11257100  0.31130500  1
  Be  Be19  1  0.93065700  0.00000000  0.32738600  1
  Be  Be20  1  0.34949500  0.00000000  0.34608300  1
  Be  Be21  1  0.25264700  0.32199000  0.24922500  1
  Be  Be22  1  0.75264700  0.17801000  0.32065300  1
  Be  Be23  1  0.81808600  0.38742900  0.31130500  1
  Be  Be24  1  0.52750500  0.32199000  0.32065300  1
  Be  Be25  1  0.75264700  0.32199000  0.35281600  1
  Be  Be26  1  0.96206600  0.11257100  0.29073600  1
  Be  Be27  1  0.25264700  0.17801000  0.28138800  1
  Be  Be28  1  0.02750500  0.17801000  0.24922500  1
  Be  Be29  1  0.70551600  0.00000000  0.29522300  1
  Be  Be30  1  0.31808600  0.38742900  0.29073600  1
  Be  Be31  1  0.02750500  0.32199000  0.28138800  1
  Be  Be32  1  0.52750500  0.17801000  0.35281600  1
  Be  Be33  1  0.84949500  0.00000000  0.25595800  1
  Be  Be34  1  0.20551600  0.00000000  0.30681800  1
  Be  Be35  1  0.43065700  0.00000000  0.27465500  1
  Be  Be36  1  0.64007600  0.50000000  0.33673500  1
  Be  Be37  1  0.14007600  0.50000000  0.26530600  1
  Be  Be38  1  0.57463600  0.50000000  0.29522300  1
  Be  Be39  1  0.46206600  0.88742900  0.31130500  1
  Be  Be40  1  0.43065700  0.50000000  0.25595800  1
  Be  Be41  1  0.84949500  0.50000000  0.27465500  1
  Be  Be42  1  0.75264700  0.82199000  0.32065300  1
  Be  Be43  1  0.25264700  0.67801000  0.24922500  1
  Be  Be44  1  0.02750500  0.82199000  0.24922500  1
  Be  Be45  1  0.25264700  0.82199000  0.28138800  1
  Be  Be46  1  0.96206600  0.88742900  0.29073600  1
  Be  Be47  1  0.75264700  0.67801000  0.35281600  1
  Be  Be48  1  0.81808600  0.61257100  0.31130500  1
  Be  Be49  1  0.52750500  0.67801000  0.32065300  1
  Be  Be50  1  0.52750500  0.82199000  0.35281600  1
  Be  Be51  1  0.02750500  0.67801000  0.28138800  1
  Be  Be52  1  0.31808600  0.61257100  0.29073600  1
  Be  Be53  1  0.07463600  0.50000000  0.30681800  1
  Be  Be54  1  0.34949500  0.50000000  0.32738600  1
  Be  Be55  1  0.93065700  0.50000000  0.34608300  1
  Be  Be56  1  0.14007600  0.00000000  0.40816300  1
  Be  Be57  1  0.64007600  0.00000000  0.47959200  1
  Be  Be58  1  0.07463600  0.00000000  0.36665200  1
  Be  Be59  1  0.96206600  0.38742900  0.38273300  1
  Be  Be60  1  0.46206600  0.11257100  0.45416200  1
  Be  Be61  1  0.93065700  0.00000000  0.47024300  1
  Be  Be62  1  0.34949500  0.00000000  0.48894000  1
  Be  Be63  1  0.25264700  0.32199000  0.39208200  1
  Be  Be64  1  0.75264700  0.17801000  0.46351000  1
  Be  Be65  1  0.81808600  0.38742900  0.45416200  1
  Be  Be66  1  0.52750500  0.32199000  0.46351000  1
  Be  Be67  1  0.75264700  0.32199000  0.49567300  1
  Be  Be68  1  0.96206600  0.11257100  0.43359300  1
  Be  Be69  1  0.46206600  0.38742900  0.36216500  1
  Be  Be70  1  0.25264700  0.17801000  0.42424500  1
  Be  Be71  1  0.31808600  0.11257100  0.38273300  1
  Be  Be72  1  0.02750500  0.17801000  0.39208200  1
  Be  Be73  1  0.70551600  0.00000000  0.43808000  1
  Be  Be74  1  0.31808600  0.38742900  0.43359300  1
  Be  Be75  1  0.02750500  0.32199000  0.42424500  1
  Be  Be76  1  0.52750500  0.17801000  0.49567300  1
  Be  Be77  1  0.81808600  0.11257100  0.36216500  1
  Be  Be78  1  0.57463600  0.00000000  0.37824600  1
  Be  Be79  1  0.84949500  0.00000000  0.39881500  1
  Be  Be80  1  0.20551600  0.00000000  0.44967500  1
  Be  Be81  1  0.43065700  0.00000000  0.41751200  1
  Be  Be82  1  0.64007600  0.50000000  0.47959200  1
  Be  Be83  1  0.14007600  0.50000000  0.40816300  1
  Be  Be84  1  0.57463600  0.50000000  0.43808000  1
  Be  Be85  1  0.46206600  0.88742900  0.45416200  1
  Be  Be86  1  0.96206600  0.61257100  0.38273300  1
  Be  Be87  1  0.43065700  0.50000000  0.39881500  1
  Be  Be88  1  0.84949500  0.50000000  0.41751200  1
  Be  Be89  1  0.75264700  0.82199000  0.46351000  1
  Be  Be90  1  0.25264700  0.67801000  0.39208200  1
  Be  Be91  1  0.31808600  0.88742900  0.38273300  1
  Be  Be92  1  0.02750500  0.82199000  0.39208200  1
  Be  Be93  1  0.25264700  0.82199000  0.42424500  1
  Be  Be94  1  0.46206600  0.61257100  0.36216500  1
  Be  Be95  1  0.96206600  0.88742900  0.43359300  1
  Be  Be96  1  0.75264700  0.67801000  0.49567300  1
  Be  Be97  1  0.81808600  0.61257100  0.45416200  1
  Be  Be98  1  0.52750500  0.67801000  0.46351000  1
  Be  Be99  1  0.20551600  0.50000000  0.36665200  1
  Be  Be100  1  0.81808600  0.88742900  0.36216500  1
  Be  Be101  1  0.52750500  0.82199000  0.49567300  1
  Be  Be102  1  0.02750500  0.67801000  0.42424500  1
  Be  Be103  1  0.31808600  0.61257100  0.43359300  1
  Be  Be104  1  0.07463600  0.50000000  0.44967500  1
  Be  Be105  1  0.34949500  0.50000000  0.47024300  1
  Be  Be106  1  0.70551600  0.50000000  0.37824600  1
  Be  Be107  1  0.93065700  0.50000000  0.48894000  1
  Be  Be108  1  0.14007600  0.00000000  0.55102000  1
  Be  Be109  1  0.64007600  0.00000000  0.62244900  1
  Be  Be110  1  0.07463600  0.00000000  0.50950900  1
  Be  Be111  1  0.96206600  0.38742900  0.52559000  1
  Be  Be112  1  0.46206600  0.11257100  0.59701900  1
  Be  Be113  1  0.93065700  0.00000000  0.61310000  1
  Be  Be114  1  0.34949500  0.00000000  0.63179700  1
  Be  Be115  1  0.25264700  0.32199000  0.53493900  1
  Be  Be116  1  0.75264700  0.17801000  0.60636700  1
  Be  Be117  1  0.81808600  0.38742900  0.59701900  1
  Be  Be118  1  0.52750500  0.32199000  0.60636700  1
  Be  Be119  1  0.75264700  0.32199000  0.63853100  1
  Be  Be120  1  0.96206600  0.11257100  0.57645000  1
  Be  Be121  1  0.46206600  0.38742900  0.50502200  1
  Be  Be122  1  0.25264700  0.17801000  0.56710200  1
  Be  Be123  1  0.31808600  0.11257100  0.52559000  1
  Be  Be124  1  0.02750500  0.17801000  0.53493900  1
  Be  Be125  1  0.70551600  0.00000000  0.58093700  1
  Be  Be126  1  0.31808600  0.38742900  0.57645000  1
  Be  Be127  1  0.02750500  0.32199000  0.56710200  1
  Be  Be128  1  0.52750500  0.17801000  0.63853100  1
  Be  Be129  1  0.81808600  0.11257100  0.50502200  1
  Be  Be130  1  0.57463600  0.00000000  0.52110300  1
  Be  Be131  1  0.84949500  0.00000000  0.54167200  1
  Be  Be132  1  0.20551600  0.00000000  0.59253200  1
  Be  Be133  1  0.43065700  0.00000000  0.56036900  1
  Be  Be134  1  0.64007600  0.50000000  0.62244900  1
  Be  Be135  1  0.14007600  0.50000000  0.55102000  1
  Be  Be136  1  0.57463600  0.50000000  0.58093700  1
  Be  Be137  1  0.46206600  0.88742900  0.59701900  1
  Be  Be138  1  0.96206600  0.61257100  0.52559000  1
  Be  Be139  1  0.43065700  0.50000000  0.54167200  1
  Be  Be140  1  0.84949500  0.50000000  0.56036900  1
  Be  Be141  1  0.75264700  0.82199000  0.60636700  1
  Be  Be142  1  0.25264700  0.67801000  0.53493900  1
  Be  Be143  1  0.31808600  0.88742900  0.52559000  1
  Be  Be144  1  0.02750500  0.82199000  0.53493900  1
  Be  Be145  1  0.25264700  0.82199000  0.56710200  1
  Be  Be146  1  0.46206600  0.61257100  0.50502200  1
  Be  Be147  1  0.96206600  0.88742900  0.57645000  1
  Be  Be148  1  0.75264700  0.67801000  0.63853100  1
  Be  Be149  1  0.81808600  0.61257100  0.59701900  1
  Be  Be150  1  0.52750500  0.67801000  0.60636700  1
  Be  Be151  1  0.20551600  0.50000000  0.50950900  1
  Be  Be152  1  0.81808600  0.88742900  0.50502200  1
  Be  Be153  1  0.52750500  0.82199000  0.63853100  1
  Be  Be154  1  0.02750500  0.67801000  0.56710200  1
  Be  Be155  1  0.31808600  0.61257100  0.57645000  1
  Be  Be156  1  0.07463600  0.50000000  0.59253200  1
  Be  Be157  1  0.34949500  0.50000000  0.61310000  1
  Be  Be158  1  0.70551600  0.50000000  0.52110300  1
  Be  Be159  1  0.93065700  0.50000000  0.63179700  1
  Be  Be160  1  0.14007600  0.00000000  0.69387800  1
  Be  Be161  1  0.64007600  0.00000000  0.76530600  1
  Be  Be162  1  0.07463600  0.00000000  0.65236600  1
  Be  Be163  1  0.96206600  0.38742900  0.66844700  1
  Be  Be164  1  0.46206600  0.11257100  0.73987600  1
  Be  Be165  1  0.93065700  0.00000000  0.75595800  1
  Be  Be166  1  0.34949500  0.00000000  0.77465500  1
  Be  Be167  1  0.25264700  0.32199000  0.67779600  1
  Be  Be168  1  0.75264700  0.17801000  0.74922500  1
  Be  Be169  1  0.81808600  0.38742900  0.73987600  1
  Be  Be170  1  0.52750500  0.32199000  0.74922500  1
  Be  Be171  1  0.75264700  0.32199000  0.78138800  1
  Be  Be172  1  0.96206600  0.11257100  0.71930800  1
  Be  Be173  1  0.46206600  0.38742900  0.64787900  1
  Be  Be174  1  0.25264700  0.17801000  0.70995900  1
  Be  Be175  1  0.31808600  0.11257100  0.66844700  1
  Be  Be176  1  0.02750500  0.17801000  0.67779600  1
  Be  Be177  1  0.70551600  0.00000000  0.72379500  1
  Be  Be178  1  0.31808600  0.38742900  0.71930800  1
  Be  Be179  1  0.02750500  0.32199000  0.70995900  1
  Be  Be180  1  0.52750500  0.17801000  0.78138800  1
  Be  Be181  1  0.81808600  0.11257100  0.64787900  1
  Be  Be182  1  0.57463600  0.00000000  0.66396100  1
  Be  Be183  1  0.84949500  0.00000000  0.68452900  1
  Be  Be184  1  0.20551600  0.00000000  0.73538900  1
  Be  Be185  1  0.43065700  0.00000000  0.70322600  1
  Be  Be186  1  0.64007600  0.50000000  0.76530600  1
  Be  Be187  1  0.14007600  0.50000000  0.69387800  1
  Be  Be188  1  0.57463600  0.50000000  0.72379500  1
  Be  Be189  1  0.46206600  0.88742900  0.73987600  1
  Be  Be190  1  0.96206600  0.61257100  0.66844700  1
  Be  Be191  1  0.43065700  0.50000000  0.68452900  1
  Be  Be192  1  0.84949500  0.50000000  0.70322600  1
  Be  Be193  1  0.75264700  0.82199000  0.74922500  1
  Be  Be194  1  0.25264700  0.67801000  0.67779600  1
  Be  Be195  1  0.31808600  0.88742900  0.66844700  1
  Be  Be196  1  0.02750500  0.82199000  0.67779600  1
  Be  Be197  1  0.25264700  0.82199000  0.70995900  1
  Be  Be198  1  0.46206600  0.61257100  0.64787900  1
  Be  Be199  1  0.96206600  0.88742900  0.71930800  1
  Be  Be200  1  0.75264700  0.67801000  0.78138800  1
  Be  Be201  1  0.81808600  0.61257100  0.73987600  1
  Be  Be202  1  0.52750500  0.67801000  0.74922500  1
  Be  Be203  1  0.20551600  0.50000000  0.65236600  1
  Be  Be204  1  0.81808600  0.88742900  0.64787900  1
  Be  Be205  1  0.52750500  0.82199000  0.78138800  1
  Be  Be206  1  0.02750500  0.67801000  0.70995900  1
  Be  Be207  1  0.31808600  0.61257100  0.71930800  1
  Be  Be208  1  0.07463600  0.50000000  0.73538900  1
  Be  Be209  1  0.34949500  0.50000000  0.75595800  1
  Be  Be210  1  0.70551600  0.50000000  0.66396100  1
  Be  Be211  1  0.93065700  0.50000000  0.77465500  1
