# generated using pymatgen
data_Mg15Pd26
_symmetry_space_group_name_H-M   'P 1'
_cell_length_a   4.30853900
_cell_length_b   12.03781485
_cell_length_c   49.04360200
_cell_angle_alpha   91.40300406
_cell_angle_beta   90.00000000
_cell_angle_gamma   90.00000000
_symmetry_Int_Tables_number   1
_chemical_formula_structural   Mg15Pd26
_chemical_formula_sum   'Mg30 Pd52'
_cell_volume   2542.90320535
_cell_formula_units_Z   2
loop_
 _symmetry_equiv_pos_site_id
 _symmetry_equiv_pos_as_xyz
  1  'x, y, z'
loop_
 _atom_site_type_symbol
 _atom_site_label
 _atom_site_symmetry_multiplicity
 _atom_site_fract_x
 _atom_site_fract_y
 _atom_site_fract_z
 _atom_site_occupancy
  Mg  Mg0  1  0.00000000  0.20236800  0.34375000  1
  Mg  Mg1  1  0.00000000  0.70236800  0.34375000  1
  Mg  Mg2  1  0.50000000  0.52462500  0.36388800  1
  Mg  Mg3  1  0.50000000  0.88011100  0.32361200  1
  Mg  Mg4  1  0.50000000  0.16016500  0.29611800  1
  Mg  Mg5  1  0.50000000  0.24457200  0.39138200  1
  Mg  Mg6  1  0.00000000  0.00236800  0.44375000  1
  Mg  Mg7  1  0.00000000  0.50236800  0.44375000  1
  Mg  Mg8  1  0.50000000  0.32462500  0.46388800  1
  Mg  Mg9  1  0.50000000  0.68011100  0.42361200  1
  Mg  Mg10  1  0.50000000  0.96016500  0.39611800  1
  Mg  Mg11  1  0.50000000  0.04457200  0.49138200  1
  Mg  Mg12  1  0.00000000  0.80236800  0.54375000  1
  Mg  Mg13  1  1.00000000  0.30236800  0.54375000  1
  Mg  Mg14  1  0.50000000  0.12462500  0.56388800  1
  Mg  Mg15  1  0.50000000  0.48011100  0.52361200  1
  Mg  Mg16  1  0.50000000  0.76016500  0.49611800  1
  Mg  Mg17  1  0.50000000  0.84457200  0.59138200  1
  Mg  Mg18  1  0.00000000  0.60236800  0.64375000  1
  Mg  Mg19  1  0.00000000  0.10236800  0.64375000  1
  Mg  Mg20  1  0.50000000  0.92462500  0.66388800  1
  Mg  Mg21  1  0.50000000  0.28011100  0.62361200  1
  Mg  Mg22  1  0.50000000  0.56016500  0.59611800  1
  Mg  Mg23  1  0.50000000  0.64457200  0.69138200  1
  Mg  Mg24  1  0.00000000  0.40236800  0.74375000  1
  Mg  Mg25  1  0.00000000  0.90236800  0.74375000  1
  Mg  Mg26  1  0.50000000  0.72462500  0.76388800  1
  Mg  Mg27  1  0.50000000  0.08011100  0.72361200  1
  Mg  Mg28  1  0.50000000  0.36016500  0.69611800  1
  Mg  Mg29  1  0.50000000  0.44457200  0.79138200  1
  Pd  Pd30  1  0.00000000  0.80236800  0.29375000  1
  Pd  Pd31  1  0.00000000  0.30236800  0.29375000  1
  Pd  Pd32  1  0.50000000  0.32622400  0.33739400  1
  Pd  Pd33  1  0.50000000  0.07851300  0.35010600  1
  Pd  Pd34  1  0.50000000  0.75634200  0.37233500  1
  Pd  Pd35  1  0.50000000  0.64839500  0.31516500  1
  Pd  Pd36  1  0.00000000  0.48501000  0.33051000  1
  Pd  Pd37  1  0.00000000  0.91972700  0.35699000  1
  Pd  Pd38  1  0.00000000  0.02958500  0.30822200  1
  Pd  Pd39  1  0.00000000  0.37515100  0.37927800  1
  Pd  Pd40  1  1.00000000  0.60236800  0.39375000  1
  Pd  Pd41  1  0.00000000  0.10236800  0.39375000  1
  Pd  Pd42  1  0.50000000  0.12622400  0.43739400  1
  Pd  Pd43  1  0.50000000  0.87851300  0.45010600  1
  Pd  Pd44  1  0.50000000  0.55634200  0.47233500  1
  Pd  Pd45  1  0.50000000  0.44839500  0.41516500  1
  Pd  Pd46  1  0.00000000  0.28501000  0.43051000  1
  Pd  Pd47  1  0.00000000  0.71972700  0.45699000  1
  Pd  Pd48  1  0.00000000  0.82958500  0.40822200  1
  Pd  Pd49  1  0.00000000  0.17515100  0.47927800  1
  Pd  Pd50  1  0.00000000  0.40236800  0.49375000  1
  Pd  Pd51  1  0.00000000  0.90236800  0.49375000  1
  Pd  Pd52  1  0.50000000  0.92622400  0.53739400  1
  Pd  Pd53  1  0.50000000  0.67851300  0.55010600  1
  Pd  Pd54  1  0.50000000  0.35634200  0.57233500  1
  Pd  Pd55  1  0.50000000  0.24839500  0.51516500  1
  Pd  Pd56  1  1.00000000  0.08501000  0.53051000  1
  Pd  Pd57  1  0.00000000  0.51972700  0.55699000  1
  Pd  Pd58  1  0.00000000  0.62958500  0.50822200  1
  Pd  Pd59  1  0.00000000  0.97515100  0.57927800  1
  Pd  Pd60  1  0.00000000  0.20236800  0.59375000  1
  Pd  Pd61  1  0.00000000  0.70236800  0.59375000  1
  Pd  Pd62  1  0.50000000  0.72622400  0.63739400  1
  Pd  Pd63  1  0.50000000  0.47851300  0.65010600  1
  Pd  Pd64  1  0.50000000  0.15634200  0.67233500  1
  Pd  Pd65  1  0.50000000  0.04839500  0.61516500  1
  Pd  Pd66  1  0.00000000  0.88501000  0.63051000  1
  Pd  Pd67  1  0.00000000  0.31972700  0.65699000  1
  Pd  Pd68  1  0.00000000  0.42958500  0.60822200  1
  Pd  Pd69  1  0.00000000  0.77515100  0.67927800  1
  Pd  Pd70  1  0.00000000  0.00236800  0.69375000  1
  Pd  Pd71  1  0.00000000  0.50236800  0.69375000  1
  Pd  Pd72  1  0.50000000  0.52622400  0.73739400  1
  Pd  Pd73  1  0.50000000  0.27851300  0.75010600  1
  Pd  Pd74  1  0.50000000  0.95634200  0.77233500  1
  Pd  Pd75  1  0.50000000  0.84839500  0.71516500  1
  Pd  Pd76  1  1.00000000  0.68501000  0.73051000  1
  Pd  Pd77  1  0.00000000  0.11972700  0.75699000  1
  Pd  Pd78  1  0.00000000  0.22958500  0.70822200  1
  Pd  Pd79  1  0.00000000  0.57515100  0.77927800  1
  Pd  Pd80  1  0.00000000  0.80236800  0.79375000  1
  Pd  Pd81  1  0.00000000  0.30236800  0.79375000  1
