# generated using pymatgen
data_Mg13Pd21
_symmetry_space_group_name_H-M   'P 1'
_cell_length_a   5.51609600
_cell_length_b   11.53452198
_cell_length_c   44.28962500
_cell_angle_alpha   83.04139460
_cell_angle_beta   90.00000000
_cell_angle_gamma   90.00000000
_symmetry_Int_Tables_number   1
_chemical_formula_structural   Mg13Pd21
_chemical_formula_sum   'Mg39 Pd63'
_cell_volume   2797.19369366
_cell_formula_units_Z   3
loop_
 _symmetry_equiv_pos_site_id
 _symmetry_equiv_pos_as_xyz
  1  'x, y, z'
loop_
 _atom_site_type_symbol
 _atom_site_label
 _atom_site_symmetry_multiplicity
 _atom_site_fract_x
 _atom_site_fract_y
 _atom_site_fract_z
 _atom_site_occupancy
  Mg  Mg0  1  0.50000000  0.85396600  0.25568200  1
  Mg  Mg1  1  0.33885000  0.46643900  0.26817900  1
  Mg  Mg2  1  0.66115000  0.24149400  0.24318500  1
  Mg  Mg3  1  0.00000000  0.26305700  0.30113600  1
  Mg  Mg4  1  0.50000000  0.67214800  0.34659100  1
  Mg  Mg5  1  0.16115000  0.87553000  0.31363300  1
  Mg  Mg6  1  0.83885000  0.65058500  0.28863900  1
  Mg  Mg7  1  0.33885000  0.28462000  0.35908800  1
  Mg  Mg8  1  0.66115000  0.05967500  0.33409400  1
  Mg  Mg9  1  1.00000000  0.08123900  0.39204500  1
  Mg  Mg10  1  0.50000000  0.49033000  0.43750000  1
  Mg  Mg11  1  0.16115000  0.69371100  0.40454200  1
  Mg  Mg12  1  0.83885000  0.46876600  0.37954900  1
  Mg  Mg13  1  0.33885000  0.10280200  0.44999700  1
  Mg  Mg14  1  0.66115000  0.87785700  0.42500300  1
  Mg  Mg15  1  0.00000000  0.89942100  0.48295500  1
  Mg  Mg16  1  0.50000000  0.30851200  0.52840900  1
  Mg  Mg17  1  0.16115000  0.51189300  0.49545100  1
  Mg  Mg18  1  0.83885000  0.28694800  0.47045800  1
  Mg  Mg19  1  0.33885000  0.92098400  0.54090600  1
  Mg  Mg20  1  0.66115000  0.69603900  0.51591200  1
  Mg  Mg21  1  0.00000000  0.71760300  0.57386400  1
  Mg  Mg22  1  0.50000000  0.12669300  0.61931800  1
  Mg  Mg23  1  0.16115000  0.33007500  0.58636100  1
  Mg  Mg24  1  0.83885000  0.10513000  0.56136700  1
  Mg  Mg25  1  0.33885000  0.73916600  0.63181500  1
  Mg  Mg26  1  0.66115000  0.51422100  0.60682100  1
  Mg  Mg27  1  0.00000000  0.53578400  0.66477300  1
  Mg  Mg28  1  0.50000000  0.94487500  0.71022700  1
  Mg  Mg29  1  0.16115000  0.14825700  0.67727000  1
  Mg  Mg30  1  0.83885000  0.92331200  0.65227600  1
  Mg  Mg31  1  0.33885000  0.55734800  0.72272400  1
  Mg  Mg32  1  0.66115000  0.33240300  0.69773000  1
  Mg  Mg33  1  0.00000000  0.35396600  0.75568200  1
  Mg  Mg34  1  0.50000000  0.76305700  0.80113600  1
  Mg  Mg35  1  0.16115000  0.96643900  0.76817900  1
  Mg  Mg36  1  0.83885000  0.74149400  0.74318500  1
  Mg  Mg37  1  0.33885000  0.37553000  0.81363300  1
  Mg  Mg38  1  0.66115000  0.15058500  0.78863900  1
  Pd  Pd39  1  0.17470500  0.26303100  0.24557800  1
  Pd  Pd40  1  0.82529500  0.44490100  0.26578600  1
  Pd  Pd41  1  0.00000000  0.85396600  0.25568200  1
  Pd  Pd42  1  0.17470500  0.08121300  0.33648700  1
  Pd  Pd43  1  0.82529500  0.26308300  0.35669500  1
  Pd  Pd44  1  0.32529500  0.67212200  0.29103200  1
  Pd  Pd45  1  0.67470500  0.85399200  0.31124000  1
  Pd  Pd46  1  0.38856000  0.05347000  0.27784900  1
  Pd  Pd47  1  0.61144000  0.47264400  0.32442400  1
  Pd  Pd48  1  0.11144000  0.46256100  0.32330400  1
  Pd  Pd49  1  0.88856000  0.06355300  0.27896900  1
  Pd  Pd50  1  0.00000000  0.67214800  0.34659100  1
  Pd  Pd51  1  0.50000000  0.26305700  0.30113600  1
  Pd  Pd52  1  0.17470500  0.89939500  0.42739600  1
  Pd  Pd53  1  0.82529500  0.08126500  0.44760400  1
  Pd  Pd54  1  0.32529500  0.49030400  0.38194200  1
  Pd  Pd55  1  0.67470500  0.67217400  0.40214900  1
  Pd  Pd56  1  0.38856000  0.87165200  0.36875800  1
  Pd  Pd57  1  0.61144000  0.29082600  0.41533300  1
  Pd  Pd58  1  0.11144000  0.28074300  0.41421300  1
  Pd  Pd59  1  0.88856000  0.88173500  0.36987800  1
  Pd  Pd60  1  0.00000000  0.49033000  0.43750000  1
  Pd  Pd61  1  0.50000000  0.08123900  0.39204500  1
  Pd  Pd62  1  0.17470500  0.71757600  0.51830500  1
  Pd  Pd63  1  0.82529500  0.89944700  0.53851300  1
  Pd  Pd64  1  0.32529500  0.30848600  0.47285100  1
  Pd  Pd65  1  0.67470500  0.49035600  0.49305800  1
  Pd  Pd66  1  0.38856000  0.68983400  0.45966700  1
  Pd  Pd67  1  0.61144000  0.10900700  0.50624200  1
  Pd  Pd68  1  0.11144000  0.09892500  0.50512200  1
  Pd  Pd69  1  0.88856000  0.69991600  0.46078700  1
  Pd  Pd70  1  0.00000000  0.30851200  0.52840900  1
  Pd  Pd71  1  0.50000000  0.89942100  0.48295500  1
  Pd  Pd72  1  0.17470500  0.53575800  0.60921400  1
  Pd  Pd73  1  0.82529500  0.71762900  0.62942200  1
  Pd  Pd74  1  0.32529500  0.12666700  0.56376000  1
  Pd  Pd75  1  0.67470500  0.30853800  0.58396800  1
  Pd  Pd76  1  0.38856000  0.50801600  0.55057600  1
  Pd  Pd77  1  0.61144000  0.92718900  0.59715100  1
  Pd  Pd78  1  0.11144000  0.91710700  0.59603100  1
  Pd  Pd79  1  0.88856000  0.51809800  0.55169600  1
  Pd  Pd80  1  0.00000000  0.12669300  0.61931800  1
  Pd  Pd81  1  0.50000000  0.71760300  0.57386400  1
  Pd  Pd82  1  0.17470500  0.35394000  0.70012300  1
  Pd  Pd83  1  0.82529500  0.53581000  0.72033100  1
  Pd  Pd84  1  0.32529500  0.94484900  0.65466900  1
  Pd  Pd85  1  0.67470500  0.12671900  0.67487700  1
  Pd  Pd86  1  0.38856000  0.32619800  0.64148500  1
  Pd  Pd87  1  0.61144000  0.74537100  0.68806000  1
  Pd  Pd88  1  0.11144000  0.73528900  0.68694000  1
  Pd  Pd89  1  0.88856000  0.33628000  0.64260600  1
  Pd  Pd90  1  0.00000000  0.94487500  0.71022700  1
  Pd  Pd91  1  0.50000000  0.53578400  0.66477300  1
  Pd  Pd92  1  0.17470500  0.17212200  0.79103200  1
  Pd  Pd93  1  0.82529500  0.35399200  0.81124000  1
  Pd  Pd94  1  0.32529500  0.76303100  0.74557800  1
  Pd  Pd95  1  0.67470500  0.94490100  0.76578600  1
  Pd  Pd96  1  0.38856000  0.14438000  0.73239400  1
  Pd  Pd97  1  0.61144000  0.56355300  0.77896900  1
  Pd  Pd98  1  0.11144000  0.55347000  0.77784900  1
  Pd  Pd99  1  0.88856000  0.15446200  0.73351500  1
  Pd  Pd100  1  0.00000000  0.76305700  0.80113600  1
  Pd  Pd101  1  0.50000000  0.35396600  0.75568200  1
