# generated using pymatgen
data_Mg24Ga59
_symmetry_space_group_name_H-M   'P 1'
_cell_length_a   12.45064400
_cell_length_b   11.26839076
_cell_length_c   46.76157100
_cell_angle_alpha   93.77131998
_cell_angle_beta   90.00000000
_cell_angle_gamma   56.46413678
_symmetry_Int_Tables_number   1
_chemical_formula_structural   Mg24Ga59
_chemical_formula_sum   'Mg48 Ga118'
_cell_volume   5451.46215196
_cell_formula_units_Z   2
loop_
 _symmetry_equiv_pos_site_id
 _symmetry_equiv_pos_as_xyz
  1  'x, y, z'
loop_
 _atom_site_type_symbol
 _atom_site_label
 _atom_site_symmetry_multiplicity
 _atom_site_fract_x
 _atom_site_fract_y
 _atom_site_fract_z
 _atom_site_occupancy
  Mg  Mg0  1  0.97841800  0.04316400  0.26876700  1
  Mg  Mg1  1  0.04705200  0.50394500  0.27857100  1
  Mg  Mg2  1  0.09900300  0.20394500  0.22857100  1
  Mg  Mg3  1  0.16763700  0.66472500  0.23837600  1
  Mg  Mg4  1  0.62841800  0.74316400  0.21876700  1
  Mg  Mg5  1  0.69705200  0.20394500  0.22857100  1
  Mg  Mg6  1  0.44900300  0.50394500  0.27857100  1
  Mg  Mg7  1  0.51763700  0.96472500  0.28837600  1
  Mg  Mg8  1  0.67841800  0.64316400  0.36876700  1
  Mg  Mg9  1  0.74705200  0.10394500  0.37857100  1
  Mg  Mg10  1  0.79900300  0.80394500  0.32857100  1
  Mg  Mg11  1  0.86763700  0.26472500  0.33837600  1
  Mg  Mg12  1  0.32841800  0.34316400  0.31876700  1
  Mg  Mg13  1  0.39705200  0.80394500  0.32857100  1
  Mg  Mg14  1  0.14900300  0.10394500  0.37857100  1
  Mg  Mg15  1  0.21763700  0.56472500  0.38837600  1
  Mg  Mg16  1  0.37841800  0.24316400  0.46876700  1
  Mg  Mg17  1  0.44705200  0.70394500  0.47857100  1
  Mg  Mg18  1  0.49900300  0.40394500  0.42857100  1
  Mg  Mg19  1  0.56763700  0.86472500  0.43837600  1
  Mg  Mg20  1  0.02841800  0.94316400  0.41876700  1
  Mg  Mg21  1  0.09705200  0.40394500  0.42857100  1
  Mg  Mg22  1  0.84900300  0.70394500  0.47857100  1
  Mg  Mg23  1  0.91763700  0.16472500  0.48837600  1
  Mg  Mg24  1  0.07841800  0.84316400  0.56876700  1
  Mg  Mg25  1  0.14705200  0.30394500  0.57857100  1
  Mg  Mg26  1  0.19900300  0.00394500  0.52857100  1
  Mg  Mg27  1  0.26763700  0.46472500  0.53837600  1
  Mg  Mg28  1  0.72841800  0.54316400  0.51876700  1
  Mg  Mg29  1  0.79705200  0.00394500  0.52857100  1
  Mg  Mg30  1  0.54900300  0.30394500  0.57857100  1
  Mg  Mg31  1  0.61763700  0.76472500  0.58837600  1
  Mg  Mg32  1  0.77841800  0.44316400  0.66876700  1
  Mg  Mg33  1  0.84705200  0.90394500  0.67857100  1
  Mg  Mg34  1  0.89900300  0.60394500  0.62857100  1
  Mg  Mg35  1  0.96763700  0.06472500  0.63837600  1
  Mg  Mg36  1  0.42841800  0.14316400  0.61876700  1
  Mg  Mg37  1  0.49705200  0.60394500  0.62857100  1
  Mg  Mg38  1  0.24900300  0.90394500  0.67857100  1
  Mg  Mg39  1  0.31763700  0.36472500  0.68837600  1
  Mg  Mg40  1  0.47841800  0.04316400  0.76876700  1
  Mg  Mg41  1  0.54705200  0.50394500  0.77857100  1
  Mg  Mg42  1  0.59900300  0.20394500  0.72857100  1
  Mg  Mg43  1  0.66763700  0.66472500  0.73837600  1
  Mg  Mg44  1  0.12841800  0.74316400  0.71876700  1
  Mg  Mg45  1  0.19705200  0.20394500  0.72857100  1
  Mg  Mg46  1  0.94900300  0.50394500  0.77857100  1
  Mg  Mg47  1  0.01763700  0.96472500  0.78837600  1
  Ga  Ga48  1  0.59616800  0.51170400  0.23053800  1
  Ga  Ga49  1  0.36455200  0.97493600  0.23973000  1
  Ga  Ga50  1  0.24212800  0.81170400  0.28053800  1
  Ga  Ga51  1  0.01051200  0.27493600  0.28973000  1
  Ga  Ga52  1  0.83544800  0.32910400  0.24943100  1
  Ga  Ga53  1  0.43150300  0.43295300  0.21741300  1
  Ga  Ga54  1  0.19988700  0.89618600  0.22660500  1
  Ga  Ga55  1  0.48554300  0.73295300  0.26741300  1
  Ga  Ga56  1  0.25392700  0.19618600  0.27660500  1
  Ga  Ga57  1  0.94616800  0.81170400  0.28053800  1
  Ga  Ga58  1  0.71455200  0.27493600  0.28973000  1
  Ga  Ga59  1  0.89212800  0.51170400  0.23053800  1
  Ga  Ga60  1  0.66051200  0.97493600  0.23973000  1
  Ga  Ga61  1  0.31060800  0.37878500  0.25771100  1
  Ga  Ga62  1  0.78150300  0.73295300  0.26741300  1
  Ga  Ga63  1  0.54988700  0.19618600  0.27660500  1
  Ga  Ga64  1  0.13554300  0.43295300  0.21741300  1
  Ga  Ga65  1  0.90392700  0.89618600  0.22660500  1
  Ga  Ga66  1  0.29616800  0.11170400  0.33053800  1
  Ga  Ga67  1  0.06455200  0.57493600  0.33973000  1
  Ga  Ga68  1  0.94212800  0.41170400  0.38053800  1
  Ga  Ga69  1  0.71051200  0.87493600  0.38973000  1
  Ga  Ga70  1  0.66060800  0.67878500  0.30771100  1
  Ga  Ga71  1  0.53544800  0.92910400  0.34943100  1
  Ga  Ga72  1  0.13150300  0.03295300  0.31741300  1
  Ga  Ga73  1  0.89988700  0.49618600  0.32660500  1
  Ga  Ga74  1  0.18554300  0.33295300  0.36741300  1
  Ga  Ga75  1  0.95392700  0.79618600  0.37660500  1
  Ga  Ga76  1  0.64616800  0.41170400  0.38053800  1
  Ga  Ga77  1  0.41455200  0.87493600  0.38973000  1
  Ga  Ga78  1  0.59212800  0.11170400  0.33053800  1
  Ga  Ga79  1  0.36051200  0.57493600  0.33973000  1
  Ga  Ga80  1  0.01060800  0.97878500  0.35771100  1
  Ga  Ga81  1  0.18544800  0.62910400  0.29943100  1
  Ga  Ga82  1  0.48150300  0.33295300  0.36741300  1
  Ga  Ga83  1  0.24988700  0.79618600  0.37660500  1
  Ga  Ga84  1  0.83554300  0.03295300  0.31741300  1
  Ga  Ga85  1  0.60392700  0.49618600  0.32660500  1
  Ga  Ga86  1  0.99616800  0.71170400  0.43053800  1
  Ga  Ga87  1  0.76455200  0.17493600  0.43973000  1
  Ga  Ga88  1  0.64212800  0.01170400  0.48053800  1
  Ga  Ga89  1  0.41051200  0.47493600  0.48973000  1
  Ga  Ga90  1  0.36060800  0.27878500  0.40771100  1
  Ga  Ga91  1  0.23544800  0.52910400  0.44943100  1
  Ga  Ga92  1  0.83150300  0.63295300  0.41741300  1
  Ga  Ga93  1  0.59988700  0.09618600  0.42660500  1
  Ga  Ga94  1  0.88554300  0.93295300  0.46741300  1
  Ga  Ga95  1  0.65392700  0.39618600  0.47660500  1
  Ga  Ga96  1  0.34616800  0.01170400  0.48053800  1
  Ga  Ga97  1  0.11455200  0.47493600  0.48973000  1
  Ga  Ga98  1  0.29212800  0.71170400  0.43053800  1
  Ga  Ga99  1  0.06051200  0.17493600  0.43973000  1
  Ga  Ga100  1  0.71060800  0.57878500  0.45771100  1
  Ga  Ga101  1  0.88544800  0.22910400  0.39943100  1
  Ga  Ga102  1  0.18150300  0.93295300  0.46741300  1
  Ga  Ga103  1  0.94988700  0.39618600  0.47660500  1
  Ga  Ga104  1  0.53554300  0.63295300  0.41741300  1
  Ga  Ga105  1  0.30392700  0.09618600  0.42660500  1
  Ga  Ga106  1  0.69616800  0.31170400  0.53053800  1
  Ga  Ga107  1  0.46455200  0.77493600  0.53973000  1
  Ga  Ga108  1  0.34212800  0.61170400  0.58053800  1
  Ga  Ga109  1  0.11051200  0.07493600  0.58973000  1
  Ga  Ga110  1  0.06060800  0.87878500  0.50771100  1
  Ga  Ga111  1  0.93544800  0.12910400  0.54943100  1
  Ga  Ga112  1  0.53150300  0.23295300  0.51741300  1
  Ga  Ga113  1  0.29988700  0.69618600  0.52660500  1
  Ga  Ga114  1  0.58554300  0.53295300  0.56741300  1
  Ga  Ga115  1  0.35392700  0.99618600  0.57660500  1
  Ga  Ga116  1  0.04616800  0.61170400  0.58053800  1
  Ga  Ga117  1  0.81455200  0.07493600  0.58973000  1
  Ga  Ga118  1  0.99212800  0.31170400  0.53053800  1
  Ga  Ga119  1  0.76051200  0.77493600  0.53973000  1
  Ga  Ga120  1  0.41060800  0.17878500  0.55771100  1
  Ga  Ga121  1  0.58544800  0.82910400  0.49943100  1
  Ga  Ga122  1  0.88150300  0.53295300  0.56741300  1
  Ga  Ga123  1  0.64988700  0.99618600  0.57660500  1
  Ga  Ga124  1  0.23554300  0.23295300  0.51741300  1
  Ga  Ga125  1  0.00392700  0.69618600  0.52660500  1
  Ga  Ga126  1  0.39616800  0.91170400  0.63053800  1
  Ga  Ga127  1  0.16455200  0.37493600  0.63973000  1
  Ga  Ga128  1  0.04212800  0.21170400  0.68053800  1
  Ga  Ga129  1  0.81051200  0.67493600  0.68973000  1
  Ga  Ga130  1  0.76060800  0.47878500  0.60771100  1
  Ga  Ga131  1  0.63544800  0.72910400  0.64943100  1
  Ga  Ga132  1  0.23150300  0.83295300  0.61741300  1
  Ga  Ga133  1  0.99988700  0.29618600  0.62660500  1
  Ga  Ga134  1  0.28554300  0.13295300  0.66741300  1
  Ga  Ga135  1  0.05392700  0.59618600  0.67660500  1
  Ga  Ga136  1  0.74616800  0.21170400  0.68053800  1
  Ga  Ga137  1  0.51455200  0.67493600  0.68973000  1
  Ga  Ga138  1  0.69212800  0.91170400  0.63053800  1
  Ga  Ga139  1  0.46051200  0.37493600  0.63973000  1
  Ga  Ga140  1  0.11060800  0.77878500  0.65771100  1
  Ga  Ga141  1  0.28544800  0.42910400  0.59943100  1
  Ga  Ga142  1  0.58150300  0.13295300  0.66741300  1
  Ga  Ga143  1  0.34988700  0.59618600  0.67660500  1
  Ga  Ga144  1  0.93554300  0.83295300  0.61741300  1
  Ga  Ga145  1  0.70392700  0.29618600  0.62660500  1
  Ga  Ga146  1  0.09616800  0.51170400  0.73053800  1
  Ga  Ga147  1  0.86455200  0.97493600  0.73973000  1
  Ga  Ga148  1  0.74212800  0.81170400  0.78053800  1
  Ga  Ga149  1  0.51051200  0.27493600  0.78973000  1
  Ga  Ga150  1  0.46060800  0.07878500  0.70771100  1
  Ga  Ga151  1  0.33544800  0.32910400  0.74943100  1
  Ga  Ga152  1  0.93150300  0.43295300  0.71741300  1
  Ga  Ga153  1  0.69988700  0.89618600  0.72660500  1
  Ga  Ga154  1  0.98554300  0.73295300  0.76741300  1
  Ga  Ga155  1  0.75392700  0.19618600  0.77660500  1
  Ga  Ga156  1  0.44616800  0.81170400  0.78053800  1
  Ga  Ga157  1  0.21455200  0.27493600  0.78973000  1
  Ga  Ga158  1  0.39212800  0.51170400  0.73053800  1
  Ga  Ga159  1  0.16051200  0.97493600  0.73973000  1
  Ga  Ga160  1  0.81060800  0.37878500  0.75771100  1
  Ga  Ga161  1  0.98544800  0.02910400  0.69943100  1
  Ga  Ga162  1  0.28150300  0.73295300  0.76741300  1
  Ga  Ga163  1  0.04988700  0.19618600  0.77660500  1
  Ga  Ga164  1  0.63554300  0.43295300  0.71741300  1
  Ga  Ga165  1  0.40392700  0.89618600  0.72660500  1
