# generated using pymatgen
data_Mg16Zn31
_symmetry_space_group_name_H-M   'P 1'
_cell_length_a   5.07402260
_cell_length_b   13.26606241
_cell_length_c   57.00757700
_cell_angle_alpha   92.18610401
_cell_angle_beta   87.66012493
_cell_angle_gamma   100.62858194
_symmetry_Int_Tables_number   1
_chemical_formula_structural   Mg16Zn31
_chemical_formula_sum   'Mg32 Zn62'
_cell_volume   3766.49990850
_cell_formula_units_Z   2
loop_
 _symmetry_equiv_pos_site_id
 _symmetry_equiv_pos_as_xyz
  1  'x, y, z'
loop_
 _atom_site_type_symbol
 _atom_site_label
 _atom_site_symmetry_multiplicity
 _atom_site_fract_x
 _atom_site_fract_y
 _atom_site_fract_z
 _atom_site_occupancy
  Mg  Mg0  1  0.18992300  0.56312800  0.43859100  1
  Mg  Mg1  1  0.39942400  0.92995500  0.39199300  1
  Mg  Mg2  1  0.75134700  0.56077700  0.30171600  1
  Mg  Mg3  1  0.73981700  0.68384600  0.45274100  1
  Mg  Mg4  1  0.87245500  0.85785700  0.36417500  1
  Mg  Mg5  1  0.06533400  0.35381500  0.47065000  1
  Mg  Mg6  1  0.75584300  0.61347600  0.35777200  1
  Mg  Mg7  1  0.83833700  0.89430900  0.47453200  1
  Mg  Mg8  1  0.19253300  0.51339500  0.38268200  1
  Mg  Mg9  1  0.95570000  0.97029700  0.31309800  1
  Mg  Mg10  1  0.07680700  0.26737700  0.37555700  1
  Mg  Mg11  1  0.63562100  0.31476000  0.29459000  1
  Mg  Mg12  1  0.32105500  0.82645800  0.43986400  1
  Mg  Mg13  1  0.31738600  0.65788100  0.27642900  1
  Mg  Mg14  1  0.51076900  0.17027300  0.40084400  1
  Mg  Mg15  1  0.07231100  0.21467800  0.31950000  1
  Mg  Mg16  1  0.38823100  0.01502700  0.48868100  1
  Mg  Mg17  1  0.51282000  0.22433900  0.45662300  1
  Mg  Mg18  1  0.42873100  0.89819900  0.28528000  1
  Mg  Mg19  1  0.25710000  0.75169600  0.48740800  1
  Mg  Mg20  1  0.14942400  0.67995500  0.64199300  1
  Mg  Mg21  1  0.50134700  0.31077700  0.55171600  1
  Mg  Mg22  1  0.62245500  0.60785700  0.61417500  1
  Mg  Mg23  1  0.50584300  0.36347600  0.60777200  1
  Mg  Mg24  1  0.94253300  0.26339500  0.63268200  1
  Mg  Mg25  1  0.70570000  0.72029700  0.56309800  1
  Mg  Mg26  1  0.82680700  0.01737700  0.62555700  1
  Mg  Mg27  1  0.38562100  0.06476000  0.54459000  1
  Mg  Mg28  1  0.06738600  0.40788100  0.52642900  1
  Mg  Mg29  1  0.26076900  0.92027300  0.65084400  1
  Mg  Mg30  1  0.82231100  0.96467800  0.56950000  1
  Mg  Mg31  1  0.17873100  0.64819900  0.53528000  1
  Zn  Zn32  1  0.31970900  0.74021000  0.36170900  1
  Zn  Zn33  1  0.85333900  0.87048800  0.41798300  1
  Zn  Zn34  1  0.62664600  0.38695300  0.37934900  1
  Zn  Zn35  1  0.29997300  0.12173100  0.27571400  1
  Zn  Zn36  1  0.73901200  0.07345100  0.35782700  1
  Zn  Zn37  1  0.03409300  0.71082100  0.40125400  1
  Zn  Zn38  1  0.91407700  0.41407700  0.33863600  1
  Zn  Zn39  1  0.50844600  0.08794400  0.31556400  1
  Zn  Zn40  1  0.01002800  0.19831800  0.42936300  1
  Zn  Zn41  1  0.59539300  0.75435400  0.31941700  1
  Zn  Zn42  1  0.85180400  0.36383200  0.41975500  1
  Zn  Zn43  1  0.62855900  0.45709000  0.45443500  1
  Zn  Zn44  1  0.25353200  0.58541900  0.33023600  1
  Zn  Zn45  1  0.87107200  0.78099000  0.28054200  1
  Zn  Zn46  1  0.97481600  0.95766700  0.25928900  1
  Zn  Zn47  1  0.56812600  0.37983600  0.49791000  1
  Zn  Zn48  1  0.39915800  0.55245900  0.48855100  1
  Zn  Zn49  1  0.23276200  0.07380000  0.35785600  1
  Zn  Zn50  1  0.79406200  0.11733400  0.27601900  1
  Zn  Zn51  1  0.57462200  0.24273500  0.34703700  1
  Zn  Zn52  1  0.17899600  0.02569500  0.43872200  1
  Zn  Zn53  1  0.08914300  0.75470300  0.31944500  1
  Zn  Zn54  1  0.41407700  0.41407700  0.33863600  1
  Zn  Zn55  1  0.69705600  0.54006800  0.40977100  1
  Zn  Zn56  1  0.34685700  0.36219500  0.41988700  1
  Zn  Zn57  1  0.91433300  0.55555500  0.48809600  1
  Zn  Zn58  1  0.13109900  0.28808700  0.26750200  1
  Zn  Zn59  1  0.66382100  0.02259900  0.43917700  1
  Zn  Zn60  1  0.95708200  0.04716400  0.39673100  1
  Zn  Zn61  1  0.48129700  0.46595900  0.25738600  1
  Zn  Zn62  1  0.52818100  0.70642300  0.40155900  1
  Zn  Zn63  1  0.41407700  0.91407700  0.33863600  1
  Zn  Zn64  1  0.97635100  0.46432300  0.25751700  1
  Zn  Zn65  1  0.94959500  0.12106400  0.47283700  1
  Zn  Zn66  1  0.20150900  0.44120200  0.29792300  1
  Zn  Zn67  1  0.06970900  0.49021000  0.61170900  1
  Zn  Zn68  1  0.60333900  0.62048800  0.66798300  1
  Zn  Zn69  1  0.37664600  0.13695300  0.62934900  1
  Zn  Zn70  1  0.04997300  0.87173100  0.52571400  1
  Zn  Zn71  1  0.48901200  0.82345100  0.60782700  1
  Zn  Zn72  1  0.78409300  0.46082100  0.65125400  1
  Zn  Zn73  1  0.66407700  0.16407700  0.58863600  1
  Zn  Zn74  1  0.25844600  0.83794400  0.56556400  1
  Zn  Zn75  1  0.34539300  0.50435400  0.56941700  1
  Zn  Zn76  1  0.60180400  0.11383200  0.66975500  1
  Zn  Zn77  1  0.00353200  0.33541900  0.58023600  1
  Zn  Zn78  1  0.62107200  0.53099000  0.53054200  1
  Zn  Zn79  1  0.72481600  0.70766700  0.50928900  1
  Zn  Zn80  1  0.98276200  0.82380000  0.60785600  1
  Zn  Zn81  1  0.54406200  0.86733400  0.52601900  1
  Zn  Zn82  1  0.32462200  0.99273500  0.59703700  1
  Zn  Zn83  1  0.83914300  0.50470300  0.56944500  1
  Zn  Zn84  1  0.16407700  0.16407700  0.58863600  1
  Zn  Zn85  1  0.44705600  0.29006800  0.65977100  1
  Zn  Zn86  1  0.09685700  0.11219500  0.66988700  1
  Zn  Zn87  1  0.88109900  0.03808700  0.51750200  1
  Zn  Zn88  1  0.70708200  0.79716400  0.64673100  1
  Zn  Zn89  1  0.23129700  0.21595900  0.50738600  1
  Zn  Zn90  1  0.27818100  0.45642300  0.65155900  1
  Zn  Zn91  1  0.16407700  0.66407700  0.58863600  1
  Zn  Zn92  1  0.72635100  0.21432300  0.50751700  1
  Zn  Zn93  1  0.95150900  0.19120200  0.54792300  1
