# generated using pymatgen
data_Mg24Co49
_symmetry_space_group_name_H-M   'P 1'
_cell_length_a   4.82826386
_cell_length_b   9.24833190
_cell_length_c   44.51983400
_cell_angle_alpha   86.73171124
_cell_angle_beta   93.10844041
_cell_angle_gamma   74.86855310
_symmetry_Int_Tables_number   1
_chemical_formula_structural   Mg24Co49
_chemical_formula_sum   'Mg24 Co49'
_cell_volume   1910.98448662
_cell_formula_units_Z   1
loop_
 _symmetry_equiv_pos_site_id
 _symmetry_equiv_pos_as_xyz
  1  'x, y, z'
loop_
 _atom_site_type_symbol
 _atom_site_label
 _atom_site_symmetry_multiplicity
 _atom_site_fract_x
 _atom_site_fract_y
 _atom_site_fract_z
 _atom_site_occupancy
  Mg  Mg0  1  0.07482600  0.36936800  0.27263200  1
  Mg  Mg1  1  0.28365800  0.89949500  0.22042400  1
  Mg  Mg2  1  0.35260300  0.82770200  0.28652100  1
  Mg  Mg3  1  0.56143600  0.35782800  0.23431300  1
  Mg  Mg4  1  0.74149200  0.11936800  0.35596500  1
  Mg  Mg5  1  0.95032500  0.64949500  0.30375700  1
  Mg  Mg6  1  0.01927000  0.57770200  0.36985400  1
  Mg  Mg7  1  0.22810300  0.10782800  0.31764600  1
  Mg  Mg8  1  0.40815900  0.86936800  0.43929900  1
  Mg  Mg9  1  0.61699200  0.39949500  0.38709000  1
  Mg  Mg10  1  0.68593700  0.32770200  0.45318700  1
  Mg  Mg11  1  0.89476900  0.85782800  0.40097900  1
  Mg  Mg12  1  0.07482600  0.61936800  0.52263200  1
  Mg  Mg13  1  0.28365800  0.14949500  0.47042400  1
  Mg  Mg14  1  0.35260300  0.07770200  0.53652100  1
  Mg  Mg15  1  0.56143600  0.60782800  0.48431300  1
  Mg  Mg16  1  0.74149200  0.36936800  0.60596500  1
  Mg  Mg17  1  0.95032500  0.89949500  0.55375700  1
  Mg  Mg18  1  0.01927000  0.82770200  0.61985400  1
  Mg  Mg19  1  0.22810300  0.35782800  0.56764600  1
  Mg  Mg20  1  0.40815900  0.11936800  0.68929900  1
  Mg  Mg21  1  0.61699200  0.64949500  0.63709000  1
  Mg  Mg22  1  0.68593700  0.57770200  0.70318700  1
  Mg  Mg23  1  0.89476900  0.10782800  0.65097900  1
  Co  Co24  1  0.98479700  0.48859800  0.21180600  1
  Co  Co25  1  0.67398700  0.63344600  0.24685600  1
  Co  Co26  1  0.18581000  0.63344600  0.24685600  1
  Co  Co27  1  0.51126200  0.51140200  0.28753800  1
  Co  Co28  1  0.81813100  0.86359800  0.25347200  1
  Co  Co29  1  0.12500000  0.21579400  0.21940700  1
  Co  Co30  1  0.45045100  0.09375000  0.26008800  1
  Co  Co31  1  0.96227400  0.09375000  0.26008800  1
  Co  Co32  1  0.65146400  0.23859800  0.29513900  1
  Co  Co33  1  0.34065400  0.38344600  0.33019000  1
  Co  Co34  1  0.85247700  0.38344600  0.33019000  1
  Co  Co35  1  0.17792800  0.26140200  0.37087100  1
  Co  Co36  1  0.48479700  0.61359800  0.33680600  1
  Co  Co37  1  0.79166700  0.96579400  0.30274000  1
  Co  Co38  1  0.11711800  0.84375000  0.34342200  1
  Co  Co39  1  0.62894100  0.84375000  0.34342200  1
  Co  Co40  1  0.31813100  0.98859800  0.37847200  1
  Co  Co41  1  0.00732100  0.13344600  0.41352300  1
  Co  Co42  1  0.51914400  0.13344600  0.41352300  1
  Co  Co43  1  0.84459500  0.01140200  0.45420400  1
  Co  Co44  1  0.15146400  0.36359800  0.42013900  1
  Co  Co45  1  0.45833300  0.71579400  0.38607400  1
  Co  Co46  1  0.78378500  0.59375000  0.42675500  1
  Co  Co47  1  0.29560800  0.59375000  0.42675500  1
  Co  Co48  1  0.98479700  0.73859800  0.46180600  1
  Co  Co49  1  0.67398700  0.88344600  0.49685600  1
  Co  Co50  1  0.18581000  0.88344600  0.49685600  1
  Co  Co51  1  0.51126200  0.76140200  0.53753800  1
  Co  Co52  1  0.81813100  0.11359800  0.50347200  1
  Co  Co53  1  0.12500000  0.46579400  0.46940700  1
  Co  Co54  1  0.45045100  0.34375000  0.51008800  1
  Co  Co55  1  0.96227400  0.34375000  0.51008800  1
  Co  Co56  1  0.65146400  0.48859800  0.54513900  1
  Co  Co57  1  0.34065400  0.63344600  0.58019000  1
  Co  Co58  1  0.85247700  0.63344600  0.58019000  1
  Co  Co59  1  0.17792800  0.51140200  0.62087100  1
  Co  Co60  1  0.48479700  0.86359800  0.58680600  1
  Co  Co61  1  0.79166700  0.21579400  0.55274000  1
  Co  Co62  1  0.11711800  0.09375000  0.59342200  1
  Co  Co63  1  0.62894100  0.09375000  0.59342200  1
  Co  Co64  1  0.31813100  0.23859800  0.62847200  1
  Co  Co65  1  0.00732100  0.38344600  0.66352300  1
  Co  Co66  1  0.51914400  0.38344600  0.66352300  1
  Co  Co67  1  0.84459500  0.26140200  0.70420400  1
  Co  Co68  1  0.15146400  0.61359800  0.67013900  1
  Co  Co69  1  0.45833300  0.96579400  0.63607400  1
  Co  Co70  1  0.78378500  0.84375000  0.67675500  1
  Co  Co71  1  0.29560800  0.84375000  0.67675500  1
  Co  Co72  1  0.98479700  0.98859800  0.71180600  1
