# generated using pymatgen
data_Mg23Zn40
_symmetry_space_group_name_H-M   'P 1'
_cell_length_a   5.07402209
_cell_length_b   22.10207791
_cell_length_c   42.67993100
_cell_angle_alpha   98.00895109
_cell_angle_beta   93.24549340
_cell_angle_gamma   83.83945518
_symmetry_Int_Tables_number   1
_chemical_formula_structural   Mg23Zn40
_chemical_formula_sum   'Mg46 Zn80'
_cell_volume   4708.12433190
_cell_formula_units_Z   2
loop_
 _symmetry_equiv_pos_site_id
 _symmetry_equiv_pos_as_xyz
  1  'x, y, z'
loop_
 _atom_site_type_symbol
 _atom_site_label
 _atom_site_symmetry_multiplicity
 _atom_site_fract_x
 _atom_site_fract_y
 _atom_site_fract_z
 _atom_site_occupancy
  Mg  Mg0  1  0.01968900  0.28776000  0.37849000  1
  Mg  Mg1  1  0.63555000  0.02271800  0.36332800  1
  Mg  Mg2  1  0.30311800  0.71773600  0.38720500  1
  Mg  Mg3  1  0.47307200  0.37717500  0.38435600  1
  Mg  Mg4  1  0.18216700  0.93330300  0.35746300  1
  Mg  Mg5  1  0.35212100  0.59274300  0.35461300  1
  Mg  Mg6  1  0.38158300  0.61494900  0.44114400  1
  Mg  Mg7  1  0.24544900  0.85487800  0.41437700  1
  Mg  Mg8  1  0.81968900  0.88776000  0.57849000  1
  Mg  Mg9  1  0.85583300  0.63493700  0.40285100  1
  Mg  Mg10  1  0.75799800  0.88167400  0.45661400  1
  Mg  Mg11  1  0.46431000  0.46710800  0.45094800  1
  Mg  Mg12  1  0.82573400  0.79672700  0.51189300  1
  Mg  Mg13  1  0.59940600  0.27554100  0.53896700  1
  Mg  Mg14  1  0.36902700  0.70687400  0.50700000  1
  Mg  Mg15  1  0.69724100  0.02880400  0.48520400  1
  Mg  Mg16  1  0.43555000  0.62271800  0.56332800  1
  Mg  Mg17  1  0.08621200  0.20360400  0.43481900  1
  Mg  Mg18  1  0.10311800  0.31773600  0.58720500  1
  Mg  Mg19  1  0.27307200  0.97717500  0.58435600  1
  Mg  Mg20  1  0.98216700  0.53330300  0.55746300  1
  Mg  Mg21  1  0.62950600  0.11375200  0.42992500  1
  Mg  Mg22  1  0.07365600  0.29552900  0.50067400  1
  Mg  Mg23  1  0.99092900  0.44337000  0.49087000  1
  Mg  Mg24  1  0.20979000  0.05560000  0.52744100  1
  Mg  Mg25  1  0.15212100  0.19274300  0.55461300  1
  Mg  Mg26  1  0.18158300  0.21494900  0.64114400  1
  Mg  Mg27  1  0.04544900  0.45487800  0.61437700  1
  Mg  Mg28  1  0.61968900  0.48776000  0.77849000  1
  Mg  Mg29  1  0.65583300  0.23493700  0.60285100  1
  Mg  Mg30  1  0.55799800  0.48167400  0.65661400  1
  Mg  Mg31  1  0.26431000  0.06710800  0.65094800  1
  Mg  Mg32  1  0.62573400  0.39672700  0.71189300  1
  Mg  Mg33  1  0.39940600  0.87554100  0.73896700  1
  Mg  Mg34  1  0.16902700  0.30687400  0.70700000  1
  Mg  Mg35  1  0.49724100  0.62880400  0.68520400  1
  Mg  Mg36  1  0.23555000  0.22271800  0.76332800  1
  Mg  Mg37  1  0.88621200  0.80360400  0.63481900  1
  Mg  Mg38  1  0.90311800  0.91773600  0.78720500  1
  Mg  Mg39  1  0.07307200  0.57717500  0.78435600  1
  Mg  Mg40  1  0.78216700  0.13330300  0.75746300  1
  Mg  Mg41  1  0.42950600  0.71375200  0.62992500  1
  Mg  Mg42  1  0.87365600  0.89552900  0.70067400  1
  Mg  Mg43  1  0.79092900  0.04337000  0.69087000  1
  Mg  Mg44  1  0.00979000  0.65560000  0.72744100  1
  Mg  Mg45  1  0.95212100  0.79274300  0.75461300  1
  Zn  Zn46  1  0.82762000  0.15523900  0.37090900  1
  Zn  Zn47  1  0.52243300  0.24057600  0.34504100  1
  Zn  Zn48  1  0.94400700  0.41819300  0.35562100  1
  Zn  Zn49  1  0.17021500  0.51076400  0.39331800  1
  Zn  Zn50  1  0.13280600  0.06990200  0.39677700  1
  Zn  Zn51  1  0.48502400  0.79971500  0.34850000  1
  Zn  Zn52  1  0.32762000  0.15523900  0.37090900  1
  Zn  Zn53  1  0.65565900  0.51291100  0.39315400  1
  Zn  Zn54  1  0.99958000  0.79756700  0.34866400  1
  Zn  Zn55  1  0.71123200  0.89228500  0.38619700  1
  Zn  Zn56  1  0.28721500  0.83954700  0.48261000  1
  Zn  Zn57  1  0.77964000  0.77911000  0.40028000  1
  Zn  Zn58  1  0.90962600  0.66296300  0.53562100  1
  Zn  Zn59  1  0.38325500  0.16414500  0.49230100  1
  Zn  Zn60  1  0.93456000  0.98060700  0.41984300  1
  Zn  Zn61  1  0.56695300  0.74870200  0.44894300  1
  Zn  Zn62  1  0.62762000  0.75523900  0.57090900  1
  Zn  Zn63  1  0.16802500  0.07093100  0.45920800  1
  Zn  Zn64  1  0.48851700  0.48748200  0.52333400  1
  Zn  Zn65  1  0.01436000  0.92978900  0.52207300  1
  Zn  Zn66  1  0.67984400  0.57290300  0.49983900  1
  Zn  Zn67  1  0.92174000  0.54084600  0.44650700  1
  Zn  Zn68  1  0.32243300  0.84057600  0.54504100  1
  Zn  Zn69  1  0.74400700  0.01819300  0.55562100  1
  Zn  Zn70  1  0.67559900  0.13136900  0.54153800  1
  Zn  Zn71  1  0.96672200  0.42299600  0.41848400  1
  Zn  Zn72  1  0.97021500  0.11076400  0.59331800  1
  Zn  Zn73  1  0.44088000  0.98069000  0.41974500  1
  Zn  Zn74  1  0.88828600  0.16177600  0.49287500  1
  Zn  Zn75  1  0.93280600  0.66990200  0.59677700  1
  Zn  Zn76  1  0.28502400  0.39971500  0.54850000  1
  Zn  Zn77  1  0.52067900  0.92987100  0.52197500  1
  Zn  Zn78  1  0.12762000  0.75523900  0.57090900  1
  Zn  Zn79  1  0.86983900  0.66336600  0.47457700  1
  Zn  Zn80  1  0.18446300  0.57198500  0.50003500  1
  Zn  Zn81  1  0.45565900  0.11291100  0.59315400  1
  Zn  Zn82  1  0.58540000  0.24711200  0.46724200  1
  Zn  Zn83  1  0.79958000  0.39756700  0.54866400  1
  Zn  Zn84  1  0.51123200  0.49228500  0.58619700  1
  Zn  Zn85  1  0.27077600  0.33849300  0.44178300  1
  Zn  Zn86  1  0.07198400  0.74633300  0.44951800  1
  Zn  Zn87  1  0.22762000  0.95523900  0.47090900  1
  Zn  Zn88  1  0.77539500  0.33757500  0.44197900  1
  Zn  Zn89  1  0.53349900  0.36963200  0.49531100  1
  Zn  Zn90  1  0.54561300  0.24751500  0.40619700  1
  Zn  Zn91  1  0.08721500  0.43954700  0.68261000  1
  Zn  Zn92  1  0.57964000  0.37911000  0.60028000  1
  Zn  Zn93  1  0.70962600  0.26296300  0.73562100  1
  Zn  Zn94  1  0.18325500  0.76414500  0.69230100  1
  Zn  Zn95  1  0.73456000  0.58060700  0.61984300  1
  Zn  Zn96  1  0.36695300  0.34870200  0.64894300  1
  Zn  Zn97  1  0.42762000  0.35523900  0.77090900  1
  Zn  Zn98  1  0.96802500  0.67093100  0.65920800  1
  Zn  Zn99  1  0.28851700  0.08748200  0.72333400  1
  Zn  Zn100  1  0.81436000  0.52978900  0.72207300  1
  Zn  Zn101  1  0.47984400  0.17290300  0.69983900  1
  Zn  Zn102  1  0.72174000  0.14084600  0.64650700  1
  Zn  Zn103  1  0.12243300  0.44057600  0.74504100  1
  Zn  Zn104  1  0.54400700  0.61819300  0.75562100  1
  Zn  Zn105  1  0.47559900  0.73136900  0.74153800  1
  Zn  Zn106  1  0.76672200  0.02299600  0.61848400  1
  Zn  Zn107  1  0.77021500  0.71076400  0.79331800  1
  Zn  Zn108  1  0.24088000  0.58069000  0.61974500  1
  Zn  Zn109  1  0.68828600  0.76177600  0.69287500  1
  Zn  Zn110  1  0.73280600  0.26990200  0.79677700  1
  Zn  Zn111  1  0.08502400  0.99971500  0.74850000  1
  Zn  Zn112  1  0.32067900  0.52987100  0.72197500  1
  Zn  Zn113  1  0.92762000  0.35523900  0.77090900  1
  Zn  Zn114  1  0.66983900  0.26336600  0.67457700  1
  Zn  Zn115  1  0.98446300  0.17198500  0.70003500  1
  Zn  Zn116  1  0.25565900  0.71291100  0.79315400  1
  Zn  Zn117  1  0.38540000  0.84711200  0.66724200  1
  Zn  Zn118  1  0.59958000  0.99756700  0.74866400  1
  Zn  Zn119  1  0.31123200  0.09228500  0.78619700  1
  Zn  Zn120  1  0.07077600  0.93849300  0.64178300  1
  Zn  Zn121  1  0.87198400  0.34633300  0.64951800  1
  Zn  Zn122  1  0.02762000  0.55523900  0.67090900  1
  Zn  Zn123  1  0.57539500  0.93757500  0.64197900  1
  Zn  Zn124  1  0.33349900  0.96963200  0.69531100  1
  Zn  Zn125  1  0.34561300  0.84751500  0.60619700  1
