# generated using pymatgen
data_Mg40Zn71
_symmetry_space_group_name_H-M   'P 1'
_cell_length_a   5.07402209
_cell_length_b   22.10207791
_cell_length_c   42.67993100
_cell_angle_alpha   98.00895109
_cell_angle_beta   93.24549340
_cell_angle_gamma   83.83945518
_symmetry_Int_Tables_number   1
_chemical_formula_structural   Mg40Zn71
_chemical_formula_sum   'Mg40 Zn71'
_cell_volume   4708.12433190
_cell_formula_units_Z   1
loop_
 _symmetry_equiv_pos_site_id
 _symmetry_equiv_pos_as_xyz
  1  'x, y, z'
loop_
 _atom_site_type_symbol
 _atom_site_label
 _atom_site_symmetry_multiplicity
 _atom_site_fract_x
 _atom_site_fract_y
 _atom_site_fract_z
 _atom_site_occupancy
  Mg  Mg0  1  0.45213000  0.75604300  0.37205300  1
  Mg  Mg1  1  0.31599500  0.99597100  0.34528600  1
  Mg  Mg2  1  0.09023600  0.42885400  0.30939900  1
  Mg  Mg3  1  0.92638000  0.77603100  0.33376000  1
  Mg  Mg4  1  0.82854500  0.02276700  0.38752300  1
  Mg  Mg5  1  0.53485700  0.60820100  0.38185700  1
  Mg  Mg6  1  0.09628000  0.33782000  0.24280200  1
  Mg  Mg7  1  0.86995200  0.81663400  0.26987600  1
  Mg  Mg8  1  0.63957400  0.24796700  0.23790900  1
  Mg  Mg9  1  0.96778800  0.56989800  0.21611300  1
  Mg  Mg10  1  0.70609700  0.16381100  0.29423700  1
  Mg  Mg11  1  0.15675900  0.34469800  0.36572800  1
  Mg  Mg12  1  0.37366500  0.85882900  0.31811400  1
  Mg  Mg13  1  0.54361800  0.51826900  0.31526500  1
  Mg  Mg14  1  0.25271400  0.07439600  0.28837200  1
  Mg  Mg15  1  0.70005200  0.25484500  0.36083400  1
  Mg  Mg16  1  0.34420200  0.83662200  0.23158300  1
  Mg  Mg17  1  0.26147600  0.98446400  0.22177900  1
  Mg  Mg18  1  0.48033700  0.59669400  0.25835000  1
  Mg  Mg19  1  0.42266800  0.73383600  0.28552200  1
  Mg  Mg20  1  0.25213000  0.35604300  0.57205300  1
  Mg  Mg21  1  0.11599500  0.59597100  0.54528600  1
  Mg  Mg22  1  0.89023600  0.02885400  0.50939900  1
  Mg  Mg23  1  0.72638000  0.37603100  0.53376000  1
  Mg  Mg24  1  0.62854500  0.62276700  0.58752300  1
  Mg  Mg25  1  0.33485700  0.20820100  0.58185700  1
  Mg  Mg26  1  0.89628000  0.93782000  0.44280200  1
  Mg  Mg27  1  0.66995200  0.41663400  0.46987600  1
  Mg  Mg28  1  0.43957400  0.84796700  0.43790900  1
  Mg  Mg29  1  0.76778800  0.16989800  0.41611300  1
  Mg  Mg30  1  0.50609700  0.76381100  0.49423700  1
  Mg  Mg31  1  0.95675900  0.94469800  0.56572800  1
  Mg  Mg32  1  0.17366500  0.45882900  0.51811400  1
  Mg  Mg33  1  0.34361800  0.11826900  0.51526500  1
  Mg  Mg34  1  0.05271400  0.67439600  0.48837200  1
  Mg  Mg35  1  0.50005200  0.85484500  0.56083400  1
  Mg  Mg36  1  0.14420200  0.43662200  0.43158300  1
  Mg  Mg37  1  0.06147600  0.58446400  0.42177900  1
  Mg  Mg38  1  0.28033700  0.19669400  0.45835000  1
  Mg  Mg39  1  0.22266800  0.33383600  0.48552200  1
  Zn  Zn40  1  0.55776100  0.38064100  0.21351900  1
  Zn  Zn41  1  0.85018700  0.92020300  0.33118900  1
  Zn  Zn42  1  0.18017300  0.20405700  0.26653000  1
  Zn  Zn43  1  0.65380100  0.70523900  0.22321000  1
  Zn  Zn44  1  0.00510700  0.12170000  0.35075200  1
  Zn  Zn45  1  0.63749900  0.88979600  0.37985200  1
  Zn  Zn46  1  0.89816600  0.29633300  0.30181800  1
  Zn  Zn47  1  0.23857100  0.21202400  0.39011700  1
  Zn  Zn48  1  0.75906400  0.02857600  0.25424300  1
  Zn  Zn49  1  0.28490600  0.47088200  0.25298200  1
  Zn  Zn50  1  0.95039100  0.11399600  0.23074800  1
  Zn  Zn51  1  0.99228700  0.68194000  0.37741600  1
  Zn  Zn52  1  0.59297900  0.38167000  0.27595000  1
  Zn  Zn53  1  0.01455400  0.55928600  0.28653000  1
  Zn  Zn54  1  0.94614600  0.67246200  0.27244700  1
  Zn  Zn55  1  0.03726900  0.56408900  0.34939300  1
  Zn  Zn56  1  0.24076100  0.65185700  0.32422800  1
  Zn  Zn57  1  0.51142600  0.12178300  0.35065400  1
  Zn  Zn58  1  0.15883300  0.70286900  0.22378400  1
  Zn  Zn59  1  0.20335300  0.21099500  0.32768600  1
  Zn  Zn60  1  0.55557100  0.94080800  0.27940900  1
  Zn  Zn61  1  0.79122600  0.47096500  0.25288400  1
  Zn  Zn62  1  0.39816600  0.29633300  0.30181800  1
  Zn  Zn63  1  0.14038600  0.20446000  0.20548600  1
  Zn  Zn64  1  0.45501000  0.11307900  0.23094400  1
  Zn  Zn65  1  0.72620600  0.65400500  0.32406300  1
  Zn  Zn66  1  0.65594700  0.38820500  0.39815100  1
  Zn  Zn67  1  0.07012700  0.93866100  0.27957300  1
  Zn  Zn68  1  0.78177900  0.03337900  0.31710600  1
  Zn  Zn69  1  0.34132300  0.47958600  0.37269200  1
  Zn  Zn70  1  0.14253100  0.88742600  0.38042700  1
  Zn  Zn71  1  0.49816600  0.49633300  0.20181800  1
  Zn  Zn72  1  0.84594200  0.47866900  0.37288800  1
  Zn  Zn73  1  0.80404600  0.91072500  0.22622000  1
  Zn  Zn74  1  0.61616000  0.38860800  0.33710600  1
  Zn  Zn75  1  0.35776100  0.98064100  0.41351900  1
  Zn  Zn76  1  0.65018700  0.52020300  0.53118900  1
  Zn  Zn77  1  0.98017300  0.80405700  0.46653000  1
  Zn  Zn78  1  0.45380100  0.30523900  0.42321000  1
  Zn  Zn79  1  0.80510700  0.72170000  0.55075200  1
  Zn  Zn80  1  0.43749900  0.48979600  0.57985200  1
  Zn  Zn81  1  0.69816600  0.89633300  0.50181800  1
  Zn  Zn82  1  0.03857100  0.81202400  0.59011700  1
  Zn  Zn83  1  0.55906400  0.62857600  0.45424300  1
  Zn  Zn84  1  0.08490600  0.07088200  0.45298200  1
  Zn  Zn85  1  0.75039100  0.71399600  0.43074800  1
  Zn  Zn86  1  0.79228700  0.28194000  0.57741600  1
  Zn  Zn87  1  0.39297900  0.98167000  0.47595000  1
  Zn  Zn88  1  0.81455400  0.15928600  0.48653000  1
  Zn  Zn89  1  0.74614600  0.27246200  0.47244700  1
  Zn  Zn90  1  0.83726900  0.16408900  0.54939300  1
  Zn  Zn91  1  0.04076100  0.25185700  0.52422800  1
  Zn  Zn92  1  0.31142600  0.72178300  0.55065400  1
  Zn  Zn93  1  0.95883300  0.30286900  0.42378400  1
  Zn  Zn94  1  0.00335300  0.81099500  0.52768600  1
  Zn  Zn95  1  0.35557100  0.54080800  0.47940900  1
  Zn  Zn96  1  0.59122600  0.07096500  0.45288400  1
  Zn  Zn97  1  0.19816600  0.89633300  0.50181800  1
  Zn  Zn98  1  0.94038600  0.80446000  0.40548600  1
  Zn  Zn99  1  0.25501000  0.71307900  0.43094400  1
  Zn  Zn100  1  0.52620600  0.25400500  0.52406300  1
  Zn  Zn101  1  0.45594700  0.98820500  0.59815100  1
  Zn  Zn102  1  0.87012700  0.53866100  0.47957300  1
  Zn  Zn103  1  0.58177900  0.63337900  0.51710600  1
  Zn  Zn104  1  0.14132300  0.07958600  0.57269200  1
  Zn  Zn105  1  0.94253100  0.48742600  0.58042700  1
  Zn  Zn106  1  0.29816600  0.09633300  0.40181800  1
  Zn  Zn107  1  0.64594200  0.07866900  0.57288800  1
  Zn  Zn108  1  0.60404600  0.51072500  0.42622000  1
  Zn  Zn109  1  0.41616000  0.98860800  0.53710600  1
  Zn  Zn110  1  0.09816600  0.69633300  0.60181800  1
