# generated using pymatgen
data_Mg25Ir6
_symmetry_space_group_name_H-M   'P 1'
_cell_length_a   8.24582600
_cell_length_b   9.82944229
_cell_length_c   49.03777500
_cell_angle_alpha   90.00000000
_cell_angle_beta   90.00000000
_cell_angle_gamma   106.23813566
_symmetry_Int_Tables_number   1
_chemical_formula_structural   Mg25Ir6
_chemical_formula_sum   'Mg100 Ir24'
_cell_volume   3816.04764390
_cell_formula_units_Z   4
loop_
 _symmetry_equiv_pos_site_id
 _symmetry_equiv_pos_as_xyz
  1  'x, y, z'
loop_
 _atom_site_type_symbol
 _atom_site_label
 _atom_site_symmetry_multiplicity
 _atom_site_fract_x
 _atom_site_fract_y
 _atom_site_fract_z
 _atom_site_occupancy
  Mg  Mg0  1  0.71686500  0.65059400  0.73958300  1
  Mg  Mg1  1  0.21686500  0.65059400  0.73958300  1
  Mg  Mg2  1  0.15059400  0.70178100  0.80082600  1
  Mg  Mg3  1  0.46686500  0.65059400  0.78376400  1
  Mg  Mg4  1  0.78313500  0.59940600  0.80082600  1
  Mg  Mg5  1  0.28313500  0.59940600  0.67834000  1
  Mg  Mg6  1  0.96686500  0.65059400  0.69540300  1
  Mg  Mg7  1  0.65059400  0.70178100  0.67834000  1
  Mg  Mg8  1  0.96686500  0.15059400  0.73958300  1
  Mg  Mg9  1  0.46686500  0.15059400  0.73958300  1
  Mg  Mg10  1  0.38295100  0.41283000  0.72094000  1
  Mg  Mg11  1  0.22386800  0.93558200  0.70519900  1
  Mg  Mg12  1  0.27979700  0.10336900  0.79261100  1
  Mg  Mg13  1  0.65393200  0.19781800  0.79261100  1
  Mg  Mg14  1  0.70986100  0.36560500  0.70519900  1
  Mg  Mg15  1  0.55077800  0.88835800  0.72094000  1
  Mg  Mg16  1  0.05077800  0.88835800  0.75822600  1
  Mg  Mg17  1  0.20986100  0.36560500  0.77396800  1
  Mg  Mg18  1  0.15393200  0.19781800  0.68655600  1
  Mg  Mg19  1  0.77979700  0.10336900  0.68655600  1
  Mg  Mg20  1  0.72386800  0.93558200  0.77396800  1
  Mg  Mg21  1  0.88295100  0.41283000  0.75822600  1
  Mg  Mg22  1  0.46686500  0.90059400  0.65625000  1
  Mg  Mg23  1  0.21686500  0.15059400  0.57291700  1
  Mg  Mg24  1  0.96686500  0.40059400  0.65625000  1
  Mg  Mg25  1  0.96686500  0.90059400  0.65625000  1
  Mg  Mg26  1  0.71686500  0.15059400  0.57291700  1
  Mg  Mg27  1  0.46686500  0.40059400  0.65625000  1
  Mg  Mg28  1  0.65059400  0.20178100  0.63416000  1
  Mg  Mg29  1  0.96686500  0.15059400  0.61709700  1
  Mg  Mg30  1  0.28313500  0.09940600  0.63416000  1
  Mg  Mg31  1  0.78313500  0.09940600  0.51167400  1
  Mg  Mg32  1  0.46686500  0.15059400  0.52873600  1
  Mg  Mg33  1  0.15059400  0.20178100  0.51167400  1
  Mg  Mg34  1  0.46686500  0.65059400  0.57291700  1
  Mg  Mg35  1  0.96686500  0.65059400  0.57291700  1
  Mg  Mg36  1  0.88295100  0.91283000  0.55427400  1
  Mg  Mg37  1  0.72386800  0.43558200  0.53853200  1
  Mg  Mg38  1  0.77979700  0.60336900  0.62594400  1
  Mg  Mg39  1  0.15393200  0.69781800  0.62594400  1
  Mg  Mg40  1  0.20986100  0.86560500  0.53853200  1
  Mg  Mg41  1  0.05077800  0.38835800  0.55427400  1
  Mg  Mg42  1  0.55077800  0.38835800  0.59156000  1
  Mg  Mg43  1  0.70986100  0.86560500  0.60730100  1
  Mg  Mg44  1  0.65393200  0.69781800  0.51988900  1
  Mg  Mg45  1  0.27979700  0.60336900  0.51988900  1
  Mg  Mg46  1  0.22386800  0.43558200  0.60730100  1
  Mg  Mg47  1  0.38295100  0.91283000  0.59156000  1
  Mg  Mg48  1  0.96686500  0.40059400  0.48958300  1
  Mg  Mg49  1  0.71686500  0.65059400  0.40625000  1
  Mg  Mg50  1  0.46686500  0.90059400  0.48958300  1
  Mg  Mg51  1  0.46686500  0.40059400  0.48958300  1
  Mg  Mg52  1  0.21686500  0.65059400  0.40625000  1
  Mg  Mg53  1  0.96686500  0.90059400  0.48958300  1
  Mg  Mg54  1  0.15059400  0.70178100  0.46749300  1
  Mg  Mg55  1  0.46686500  0.65059400  0.45043100  1
  Mg  Mg56  1  0.78313500  0.59940600  0.46749300  1
  Mg  Mg57  1  0.28313500  0.59940600  0.34500700  1
  Mg  Mg58  1  0.96686500  0.65059400  0.36206900  1
  Mg  Mg59  1  0.65059400  0.70178100  0.34500700  1
  Mg  Mg60  1  0.96686500  0.15059400  0.40625000  1
  Mg  Mg61  1  0.46686500  0.15059400  0.40625000  1
  Mg  Mg62  1  0.38295100  0.41283000  0.38760700  1
  Mg  Mg63  1  0.22386800  0.93558200  0.37186500  1
  Mg  Mg64  1  0.27979700  0.10336900  0.45927700  1
  Mg  Mg65  1  0.65393200  0.19781800  0.45927700  1
  Mg  Mg66  1  0.70986100  0.36560500  0.37186500  1
  Mg  Mg67  1  0.55077800  0.88835800  0.38760700  1
  Mg  Mg68  1  0.05077800  0.88835800  0.42489300  1
  Mg  Mg69  1  0.20986100  0.36560500  0.44063500  1
  Mg  Mg70  1  0.15393200  0.19781800  0.35322300  1
  Mg  Mg71  1  0.77979700  0.10336900  0.35322300  1
  Mg  Mg72  1  0.72386800  0.93558200  0.44063500  1
  Mg  Mg73  1  0.88295100  0.41283000  0.42489300  1
  Mg  Mg74  1  0.46686500  0.90059400  0.32291700  1
  Mg  Mg75  1  0.21686500  0.15059400  0.23958300  1
  Mg  Mg76  1  0.96686500  0.40059400  0.32291700  1
  Mg  Mg77  1  0.96686500  0.90059400  0.32291700  1
  Mg  Mg78  1  0.71686500  0.15059400  0.23958300  1
  Mg  Mg79  1  0.46686500  0.40059400  0.32291700  1
  Mg  Mg80  1  0.65059400  0.20178100  0.30082600  1
  Mg  Mg81  1  0.96686500  0.15059400  0.28376400  1
  Mg  Mg82  1  0.28313500  0.09940600  0.30082600  1
  Mg  Mg83  1  0.78313500  0.09940600  0.17834000  1
  Mg  Mg84  1  0.46686500  0.15059400  0.19540300  1
  Mg  Mg85  1  0.15059400  0.20178100  0.17834000  1
  Mg  Mg86  1  0.46686500  0.65059400  0.23958300  1
  Mg  Mg87  1  0.96686500  0.65059400  0.23958300  1
  Mg  Mg88  1  0.88295100  0.91283000  0.22094000  1
  Mg  Mg89  1  0.72386800  0.43558200  0.20519900  1
  Mg  Mg90  1  0.77979700  0.60336900  0.29261100  1
  Mg  Mg91  1  0.15393200  0.69781800  0.29261100  1
  Mg  Mg92  1  0.20986100  0.86560500  0.20519900  1
  Mg  Mg93  1  0.05077800  0.38835800  0.22094000  1
  Mg  Mg94  1  0.55077800  0.38835800  0.25822600  1
  Mg  Mg95  1  0.70986100  0.86560500  0.27396800  1
  Mg  Mg96  1  0.65393200  0.69781800  0.18655600  1
  Mg  Mg97  1  0.27979700  0.60336900  0.18655600  1
  Mg  Mg98  1  0.22386800  0.43558200  0.27396800  1
  Mg  Mg99  1  0.38295100  0.91283000  0.25822600  1
  Ir  Ir100  1  0.38053900  0.89161800  0.76835800  1
  Ir  Ir101  1  0.46686500  0.15059400  0.68203300  1
  Ir  Ir102  1  0.55319000  0.40957000  0.76835800  1
  Ir  Ir103  1  0.05319000  0.40957000  0.71080800  1
  Ir  Ir104  1  0.96686500  0.15059400  0.79713400  1
  Ir  Ir105  1  0.88053900  0.89161800  0.71080800  1
  Ir  Ir106  1  0.88053900  0.39161800  0.60169200  1
  Ir  Ir107  1  0.96686500  0.65059400  0.51536600  1
  Ir  Ir108  1  0.05319000  0.90957000  0.60169200  1
  Ir  Ir109  1  0.55319000  0.90957000  0.54414200  1
  Ir  Ir110  1  0.46686500  0.65059400  0.63046700  1
  Ir  Ir111  1  0.38053900  0.39161800  0.54414200  1
  Ir  Ir112  1  0.38053900  0.89161800  0.43502500  1
  Ir  Ir113  1  0.46686500  0.15059400  0.34870000  1
  Ir  Ir114  1  0.55319000  0.40957000  0.43502500  1
  Ir  Ir115  1  0.05319000  0.40957000  0.37747500  1
  Ir  Ir116  1  0.96686500  0.15059400  0.46380000  1
  Ir  Ir117  1  0.88053900  0.89161800  0.37747500  1
  Ir  Ir118  1  0.88053900  0.39161800  0.26835800  1
  Ir  Ir119  1  0.96686500  0.65059400  0.18203300  1
  Ir  Ir120  1  0.05319000  0.90957000  0.26835800  1
  Ir  Ir121  1  0.55319000  0.90957000  0.21080800  1
  Ir  Ir122  1  0.46686500  0.65059400  0.29713400  1
  Ir  Ir123  1  0.38053900  0.39161800  0.21080800  1
