# generated using pymatgen
data_Y2Mg
_symmetry_space_group_name_H-M   'P 1'
_cell_length_a   6.64056910
_cell_length_b   8.78578758
_cell_length_c   42.54886000
_cell_angle_alpha   91.18845685
_cell_angle_beta   92.24944289
_cell_angle_gamma   96.83526682
_symmetry_Int_Tables_number   1
_chemical_formula_structural   Y2Mg
_chemical_formula_sum   'Y36 Mg18'
_cell_volume   2462.06112541
_cell_formula_units_Z   18
loop_
 _symmetry_equiv_pos_site_id
 _symmetry_equiv_pos_as_xyz
  1  'x, y, z'
loop_
 _atom_site_type_symbol
 _atom_site_label
 _atom_site_symmetry_multiplicity
 _atom_site_fract_x
 _atom_site_fract_y
 _atom_site_fract_z
 _atom_site_occupancy
  Y  Y0  1  0.56158700  0.40678700  0.22567500  1
  Y  Y1  1  0.47080000  0.79397500  0.24837100  1
  Y  Y2  1  0.15269800  0.02178500  0.20289700  1
  Y  Y3  1  0.24348500  0.63459700  0.18020000  1
  Y  Y4  1  0.27587300  0.47821500  0.29710300  1
  Y  Y5  1  0.18508600  0.86540300  0.31980000  1
  Y  Y6  1  0.86698400  0.09321300  0.27432500  1
  Y  Y7  1  0.95777100  0.70602500  0.25162900  1
  Y  Y8  1  0.99015900  0.54964400  0.36853200  1
  Y  Y9  1  0.89937200  0.93683200  0.39122800  1
  Y  Y10  1  0.58127000  0.16464200  0.34575400  1
  Y  Y11  1  0.67205700  0.77745400  0.32305700  1
  Y  Y12  1  0.70444500  0.62107200  0.43996000  1
  Y  Y13  1  0.61365800  0.00826000  0.46265700  1
  Y  Y14  1  0.29555500  0.23607100  0.41718300  1
  Y  Y15  1  0.38634200  0.84888300  0.39448600  1
  Y  Y16  1  0.41873000  0.69250100  0.51138900  1
  Y  Y17  1  0.32794300  0.07968900  0.53408600  1
  Y  Y18  1  0.00984100  0.30749900  0.48861100  1
  Y  Y19  1  0.10062800  0.92031100  0.46591400  1
  Y  Y20  1  0.13301600  0.76392900  0.58281700  1
  Y  Y21  1  0.04222900  0.15111700  0.60551400  1
  Y  Y22  1  0.72412700  0.37892800  0.56004000  1
  Y  Y23  1  0.81491400  0.99174000  0.53734300  1
  Y  Y24  1  0.84730200  0.83535800  0.65424600  1
  Y  Y25  1  0.75651500  0.22254600  0.67694300  1
  Y  Y26  1  0.43841300  0.45035600  0.63146800  1
  Y  Y27  1  0.52920000  0.06316800  0.60877200  1
  Y  Y28  1  0.56158700  0.90678700  0.72567500  1
  Y  Y29  1  0.47080000  0.29397500  0.74837100  1
  Y  Y30  1  0.15269800  0.52178500  0.70289700  1
  Y  Y31  1  0.24348500  0.13459700  0.68020000  1
  Y  Y32  1  0.27587300  0.97821500  0.79710300  1
  Y  Y33  1  0.18508600  0.36540300  0.81980000  1
  Y  Y34  1  0.86698400  0.59321300  0.77432500  1
  Y  Y35  1  0.95777100  0.20602500  0.75162900  1
  Mg  Mg36  1  0.65927700  0.06619200  0.20125200  1
  Mg  Mg37  1  0.05500900  0.36238000  0.22731900  1
  Mg  Mg38  1  0.37356300  0.13762000  0.27268100  1
  Mg  Mg39  1  0.76929400  0.43380800  0.29874800  1
  Mg  Mg40  1  0.08784900  0.20904900  0.34410900  1
  Mg  Mg41  1  0.48358000  0.50523700  0.37017600  1
  Mg  Mg42  1  0.80213400  0.28047700  0.41553800  1
  Mg  Mg43  1  0.19786600  0.57666500  0.44160500  1
  Mg  Mg44  1  0.51642000  0.35190600  0.48696600  1
  Mg  Mg45  1  0.91215100  0.64809400  0.51303400  1
  Mg  Mg46  1  0.23070600  0.42333500  0.55839500  1
  Mg  Mg47  1  0.62643700  0.71952300  0.58446200  1
  Mg  Mg48  1  0.94499100  0.49476300  0.62982400  1
  Mg  Mg49  1  0.34072300  0.79095100  0.65589100  1
  Mg  Mg50  1  0.65927700  0.56619200  0.70125200  1
  Mg  Mg51  1  0.05500900  0.86238000  0.72731900  1
  Mg  Mg52  1  0.37356300  0.63762000  0.77268100  1
  Mg  Mg53  1  0.76929400  0.93380800  0.79874800  1
