# generated using pymatgen
data_Mg7B47
_symmetry_space_group_name_H-M   'P 1'
_cell_length_a   5.97250318
_cell_length_b   7.26364858
_cell_length_c   45.01062000
_cell_angle_alpha   86.50256948
_cell_angle_beta   86.19588580
_cell_angle_gamma   65.72461627
_symmetry_Int_Tables_number   1
_chemical_formula_structural   Mg7B47
_chemical_formula_sum   'Mg14 B94'
_cell_volume   1774.86073170
_cell_formula_units_Z   2
loop_
 _symmetry_equiv_pos_site_id
 _symmetry_equiv_pos_as_xyz
  1  'x, y, z'
loop_
 _atom_site_type_symbol
 _atom_site_label
 _atom_site_symmetry_multiplicity
 _atom_site_fract_x
 _atom_site_fract_y
 _atom_site_fract_z
 _atom_site_occupancy
  Mg  Mg0  1  0.30008200  0.21233500  0.68750000  1
  Mg  Mg1  1  0.80008200  0.21233500  0.68750000  1
  Mg  Mg2  1  0.78666000  0.65137300  0.77530800  1
  Mg  Mg3  1  0.38493400  0.48758300  0.74254900  1
  Mg  Mg4  1  0.72865400  0.49804900  0.54464300  1
  Mg  Mg5  1  0.22865400  0.49804900  0.54464300  1
  Mg  Mg6  1  0.21523100  0.93708800  0.63245100  1
  Mg  Mg7  1  0.81350500  0.77329700  0.59969200  1
  Mg  Mg8  1  0.15722500  0.78376400  0.40178600  1
  Mg  Mg9  1  0.65722500  0.78376400  0.40178600  1
  Mg  Mg10  1  0.64380200  0.22280200  0.48959300  1
  Mg  Mg11  1  0.24207700  0.05901100  0.45683500  1
  Mg  Mg12  1  0.07237400  0.50851600  0.34673600  1
  Mg  Mg13  1  0.67064800  0.34472500  0.31397800  1
  B  B14  1  0.04525800  0.25687600  0.65260900  1
  B  B15  1  0.86449600  0.00134900  0.77643700  1
  B  B16  1  0.35771800  0.00134900  0.77643700  1
  B  B17  1  0.11434500  0.04933000  0.72198000  1
  B  B18  1  0.19118000  0.83846100  0.77917800  1
  B  B19  1  0.03664300  0.87092200  0.74467500  1
  B  B20  1  0.34776000  0.87092200  0.74467500  1
  B  B21  1  0.67748100  0.94410300  0.70093500  1
  B  B22  1  0.17039900  0.97530900  0.68389400  1
  B  B23  1  0.71560100  0.90851500  0.66028300  1
  B  B24  1  0.48982800  0.84435200  0.68277000  1
  B  B25  1  0.98305000  0.84435200  0.68277000  1
  B  B26  1  0.61085700  0.74723200  0.71993700  1
  B  B27  1  0.92197400  0.74723200  0.71993700  1
  B  B28  1  0.67819100  0.67743800  0.65506300  1
  B  B29  1  0.98930800  0.67743800  0.65506300  1
  B  B30  1  0.61711500  0.58031900  0.69223000  1
  B  B31  1  0.11033700  0.58031900  0.69223000  1
  B  B32  1  0.88456400  0.51615500  0.71471700  1
  B  B33  1  0.42976600  0.44936100  0.69110600  1
  B  B34  1  0.92268400  0.48056700  0.67406500  1
  B  B35  1  0.82383400  0.26803400  0.77318200  1
  B  B36  1  0.13495100  0.26803400  0.77318200  1
  B  B37  1  0.98041300  0.30049500  0.73867900  1
  B  B38  1  0.48582000  0.37534000  0.65302000  1
  B  B39  1  0.81387500  0.13760700  0.74142100  1
  B  B40  1  0.30709700  0.13760700  0.74142100  1
  B  B41  1  0.55490700  0.16779400  0.72239100  1
  B  B42  1  0.47382900  0.54259000  0.50975200  1
  B  B43  1  0.29306800  0.28706400  0.63357900  1
  B  B44  1  0.78628900  0.28706400  0.63357900  1
  B  B45  1  0.54291600  0.33504400  0.57912300  1
  B  B46  1  0.61975200  0.12417500  0.63632100  1
  B  B47  1  0.46521400  0.15663600  0.60181800  1
  B  B48  1  0.77633100  0.15663600  0.60181800  1
  B  B49  1  0.10605200  0.22981800  0.55807800  1
  B  B50  1  0.59897000  0.26102300  0.54103700  1
  B  B51  1  0.14417200  0.19423000  0.51742600  1
  B  B52  1  0.91840000  0.13006600  0.53991200  1
  B  B53  1  0.41162200  0.13006600  0.53991200  1
  B  B54  1  0.03942800  0.03294600  0.57708000  1
  B  B55  1  0.35054500  0.03294600  0.57708000  1
  B  B56  1  0.10676300  0.96315300  0.51220500  1
  B  B57  1  0.41787900  0.96315300  0.51220500  1
  B  B58  1  0.04568600  0.86603300  0.54937300  1
  B  B59  1  0.53890800  0.86603300  0.54937300  1
  B  B60  1  0.31313600  0.80186900  0.57186000  1
  B  B61  1  0.85833800  0.73507600  0.54824900  1
  B  B62  1  0.35125600  0.76628100  0.53120800  1
  B  B63  1  0.25240500  0.55374800  0.63032500  1
  B  B64  1  0.56352200  0.55374800  0.63032500  1
  B  B65  1  0.40898400  0.58620900  0.59582200  1
  B  B66  1  0.91439200  0.66105400  0.51016300  1
  B  B67  1  0.24244700  0.42332100  0.59856300  1
  B  B68  1  0.73566900  0.42332100  0.59856300  1
  B  B69  1  0.98347900  0.45350900  0.57953400  1
  B  B70  1  0.90240100  0.82830400  0.36689500  1
  B  B71  1  0.72163900  0.57277800  0.49072200  1
  B  B72  1  0.21486100  0.57277800  0.49072200  1
  B  B73  1  0.97148800  0.62075900  0.43626600  1
  B  B74  1  0.04832300  0.40988900  0.49346400  1
  B  B75  1  0.89378600  0.44235100  0.45896100  1
  B  B76  1  0.20490200  0.44235100  0.45896100  1
  B  B77  1  0.53462400  0.51553200  0.41522100  1
  B  B78  1  0.02754100  0.54673700  0.39818000  1
  B  B79  1  0.57274400  0.47994400  0.37456900  1
  B  B80  1  0.34697100  0.41578000  0.39705500  1
  B  B81  1  0.84019300  0.41578000  0.39705500  1
  B  B82  1  0.46800000  0.31866000  0.43422300  1
  B  B83  1  0.77911700  0.31866000  0.43422300  1
  B  B84  1  0.53533400  0.24886700  0.36934800  1
  B  B85  1  0.84645100  0.24886700  0.36934800  1
  B  B86  1  0.47425700  0.15174700  0.40651600  1
  B  B87  1  0.96747900  0.15174700  0.40651600  1
  B  B88  1  0.74170700  0.08758300  0.42900300  1
  B  B89  1  0.28690900  0.02079000  0.40539200  1
  B  B90  1  0.77982700  0.05199500  0.38835100  1
  B  B91  1  0.68097700  0.83946200  0.48746700  1
  B  B92  1  0.99209300  0.83946200  0.48746700  1
  B  B93  1  0.83755600  0.87192300  0.45296500  1
  B  B94  1  0.34296300  0.94676900  0.36730500  1
  B  B95  1  0.67101800  0.70903500  0.45570600  1
  B  B96  1  0.16424000  0.70903500  0.45570600  1
  B  B97  1  0.41205000  0.73922300  0.43667700  1
  B  B98  1  0.15021000  0.85849200  0.34786500  1
  B  B99  1  0.64343200  0.85849200  0.34786500  1
  B  B100  1  0.47689500  0.69560400  0.35060700  1
  B  B101  1  0.32235700  0.72806500  0.31610400  1
  B  B102  1  0.63347400  0.72806500  0.31610400  1
  B  B103  1  0.10954800  0.12517700  0.34461000  1
  B  B104  1  0.42066500  0.12517700  0.34461000  1
  B  B105  1  0.26612700  0.15763800  0.31010800  1
  B  B106  1  0.09959000  0.99474900  0.31284900  1
  B  B107  1  0.59281200  0.99474900  0.31284900  1
