# generated using pymatgen
data_Mg23Pb7
_symmetry_space_group_name_H-M   'P 1'
_cell_length_a   5.23940800
_cell_length_b   11.31072598
_cell_length_c   42.82171900
_cell_angle_alpha   97.58909028
_cell_angle_beta   90.00000000
_cell_angle_gamma   90.00000000
_symmetry_Int_Tables_number   1
_chemical_formula_structural   Mg23Pb7
_chemical_formula_sum   'Mg46 Pb14'
_cell_volume   2515.45136759
_cell_formula_units_Z   2
loop_
 _symmetry_equiv_pos_site_id
 _symmetry_equiv_pos_as_xyz
  1  'x, y, z'
loop_
 _atom_site_type_symbol
 _atom_site_label
 _atom_site_symmetry_multiplicity
 _atom_site_fract_x
 _atom_site_fract_y
 _atom_site_fract_z
 _atom_site_occupancy
  Mg  Mg0  1  0.25000000  0.71375700  0.21243700  1
  Mg  Mg1  1  0.25000000  0.21285900  0.21064000  1
  Mg  Mg2  1  0.25000000  0.48837700  0.25000000  1
  Mg  Mg3  1  0.75000000  0.81392600  0.25000000  1
  Mg  Mg4  1  0.75000000  0.55098300  0.21243700  1
  Mg  Mg5  1  0.75000000  0.05008400  0.21064000  1
  Mg  Mg6  1  0.25000000  0.25221800  0.28936000  1
  Mg  Mg7  1  0.25000000  0.75132000  0.28756300  1
  Mg  Mg8  1  0.25000000  0.02683900  0.32692300  1
  Mg  Mg9  1  0.75000000  0.35238700  0.32692300  1
  Mg  Mg10  1  0.75000000  0.08944400  0.28936000  1
  Mg  Mg11  1  0.75000000  0.58854600  0.28756300  1
  Mg  Mg12  1  0.25000000  0.79068000  0.36628300  1
  Mg  Mg13  1  0.25000000  0.28978200  0.36448600  1
  Mg  Mg14  1  0.25000000  0.56530000  0.40384600  1
  Mg  Mg15  1  0.75000000  0.89084900  0.40384600  1
  Mg  Mg16  1  0.75000000  0.62790600  0.36628300  1
  Mg  Mg17  1  0.75000000  0.12700700  0.36448600  1
  Mg  Mg18  1  0.25000000  0.32914100  0.44320600  1
  Mg  Mg19  1  0.25000000  0.82824300  0.44140900  1
  Mg  Mg20  1  0.25000000  0.10376200  0.48076900  1
  Mg  Mg21  1  0.75000000  0.42931000  0.48076900  1
  Mg  Mg22  1  0.75000000  0.16636700  0.44320600  1
  Mg  Mg23  1  0.75000000  0.66546900  0.44140900  1
  Mg  Mg24  1  0.25000000  0.86760300  0.52012900  1
  Mg  Mg25  1  0.25000000  0.36670500  0.51833200  1
  Mg  Mg26  1  0.25000000  0.64222300  0.55769200  1
  Mg  Mg27  1  0.75000000  0.96777200  0.55769200  1
  Mg  Mg28  1  0.75000000  0.70482900  0.52012900  1
  Mg  Mg29  1  0.75000000  0.20393100  0.51833200  1
  Mg  Mg30  1  0.25000000  0.40606400  0.59705200  1
  Mg  Mg31  1  0.25000000  0.90516600  0.59525600  1
  Mg  Mg32  1  0.25000000  0.18068500  0.63461500  1
  Mg  Mg33  1  0.75000000  0.50623300  0.63461500  1
  Mg  Mg34  1  0.75000000  0.24329000  0.59705200  1
  Mg  Mg35  1  0.75000000  0.74239200  0.59525600  1
  Mg  Mg36  1  0.25000000  0.94452600  0.67397500  1
  Mg  Mg37  1  0.25000000  0.44362800  0.67217900  1
  Mg  Mg38  1  0.25000000  0.71914600  0.71153800  1
  Mg  Mg39  1  0.75000000  0.04469500  0.71153800  1
  Mg  Mg40  1  0.75000000  0.78175200  0.67397500  1
  Mg  Mg41  1  0.75000000  0.28085400  0.67217900  1
  Mg  Mg42  1  0.25000000  0.48298800  0.75089800  1
  Mg  Mg43  1  0.25000000  0.98208900  0.74910200  1
  Mg  Mg44  1  0.75000000  0.32021300  0.75089800  1
  Mg  Mg45  1  0.75000000  0.81931500  0.74910200  1
  Pb  Pb46  1  0.25000000  0.98448500  0.25000000  1
  Pb  Pb47  1  0.75000000  0.31781800  0.25000000  1
  Pb  Pb48  1  0.25000000  0.52294600  0.32692300  1
  Pb  Pb49  1  0.75000000  0.85628000  0.32692300  1
  Pb  Pb50  1  0.25000000  0.06140800  0.40384600  1
  Pb  Pb51  1  0.75000000  0.39474100  0.40384600  1
  Pb  Pb52  1  0.25000000  0.59986900  0.48076900  1
  Pb  Pb53  1  0.75000000  0.93320300  0.48076900  1
  Pb  Pb54  1  0.25000000  0.13833100  0.55769200  1
  Pb  Pb55  1  0.75000000  0.47166400  0.55769200  1
  Pb  Pb56  1  0.25000000  0.67679200  0.63461500  1
  Pb  Pb57  1  0.75000000  0.01012600  0.63461500  1
  Pb  Pb58  1  0.25000000  0.21525400  0.71153800  1
  Pb  Pb59  1  0.75000000  0.54858700  0.71153800  1
