# generated using pymatgen
data_Mg3Pb
_symmetry_space_group_name_H-M   'P 1'
_cell_length_a   8.37231071
_cell_length_b   8.37230980
_cell_length_c   44.43436500
_cell_angle_alpha   87.20710794
_cell_angle_beta   92.79289176
_cell_angle_gamma   95.01647874
_symmetry_Int_Tables_number   1
_chemical_formula_structural   Mg3Pb
_chemical_formula_sum   'Mg60 Pb20'
_cell_volume   3095.94057230
_cell_formula_units_Z   20
loop_
 _symmetry_equiv_pos_site_id
 _symmetry_equiv_pos_as_xyz
  1  'x, y, z'
loop_
 _atom_site_type_symbol
 _atom_site_label
 _atom_site_symmetry_multiplicity
 _atom_site_fract_x
 _atom_site_fract_y
 _atom_site_fract_z
 _atom_site_occupancy
  Mg  Mg0  1  0.76382300  0.07340300  0.20239500  1
  Mg  Mg1  1  0.26090300  0.57632300  0.20385500  1
  Mg  Mg2  1  0.44402400  0.88152400  0.23437500  1
  Mg  Mg3  1  0.93097600  0.74347600  0.20312500  1
  Mg  Mg4  1  0.11409700  0.04867700  0.23364500  1
  Mg  Mg5  1  0.61117700  0.55159700  0.23510500  1
  Mg  Mg6  1  0.13882300  0.69840300  0.26489500  1
  Mg  Mg7  1  0.63590300  0.20132300  0.26635500  1
  Mg  Mg8  1  0.81902400  0.50652400  0.29687500  1
  Mg  Mg9  1  0.30597600  0.36847600  0.26562500  1
  Mg  Mg10  1  0.48909700  0.67367700  0.29614500  1
  Mg  Mg11  1  0.98617700  0.17659700  0.29760500  1
  Mg  Mg12  1  0.51382300  0.32340300  0.32739500  1
  Mg  Mg13  1  0.01090300  0.82632300  0.32885500  1
  Mg  Mg14  1  0.19402400  0.13152400  0.35937500  1
  Mg  Mg15  1  0.68097600  0.99347600  0.32812500  1
  Mg  Mg16  1  0.86409700  0.29867700  0.35864500  1
  Mg  Mg17  1  0.36117700  0.80159700  0.36010500  1
  Mg  Mg18  1  0.88882300  0.94840300  0.38989500  1
  Mg  Mg19  1  0.38590300  0.45132300  0.39135500  1
  Mg  Mg20  1  0.56902400  0.75652400  0.42187500  1
  Mg  Mg21  1  0.05597600  0.61847600  0.39062500  1
  Mg  Mg22  1  0.23909700  0.92367700  0.42114500  1
  Mg  Mg23  1  0.73617700  0.42659700  0.42260500  1
  Mg  Mg24  1  0.26382300  0.57340300  0.45239500  1
  Mg  Mg25  1  0.76090300  0.07632300  0.45385500  1
  Mg  Mg26  1  0.94402400  0.38152400  0.48437500  1
  Mg  Mg27  1  0.43097600  0.24347600  0.45312500  1
  Mg  Mg28  1  0.61409700  0.54867700  0.48364500  1
  Mg  Mg29  1  0.11117700  0.05159700  0.48510500  1
  Mg  Mg30  1  0.63882300  0.19840300  0.51489500  1
  Mg  Mg31  1  0.13590300  0.70132300  0.51635500  1
  Mg  Mg32  1  0.31902400  0.00652400  0.54687500  1
  Mg  Mg33  1  0.80597600  0.86847600  0.51562500  1
  Mg  Mg34  1  0.98909700  0.17367700  0.54614500  1
  Mg  Mg35  1  0.48617700  0.67659700  0.54760500  1
  Mg  Mg36  1  0.01382300  0.82340300  0.57739500  1
  Mg  Mg37  1  0.51090300  0.32632300  0.57885500  1
  Mg  Mg38  1  0.69402400  0.63152400  0.60937500  1
  Mg  Mg39  1  0.18097600  0.49347600  0.57812500  1
  Mg  Mg40  1  0.36409700  0.79867700  0.60864500  1
  Mg  Mg41  1  0.86117700  0.30159700  0.61010500  1
  Mg  Mg42  1  0.38882300  0.44840300  0.63989500  1
  Mg  Mg43  1  0.88590300  0.95132300  0.64135500  1
  Mg  Mg44  1  0.06902400  0.25652400  0.67187500  1
  Mg  Mg45  1  0.55597600  0.11847600  0.64062500  1
  Mg  Mg46  1  0.73909700  0.42367700  0.67114500  1
  Mg  Mg47  1  0.23617700  0.92659700  0.67260500  1
  Mg  Mg48  1  0.76382300  0.07340300  0.70239500  1
  Mg  Mg49  1  0.26090300  0.57632300  0.70385500  1
  Mg  Mg50  1  0.44402400  0.88152400  0.73437500  1
  Mg  Mg51  1  0.93097600  0.74347600  0.70312500  1
  Mg  Mg52  1  0.11409700  0.04867700  0.73364500  1
  Mg  Mg53  1  0.61117700  0.55159700  0.73510500  1
  Mg  Mg54  1  0.13882300  0.69840300  0.76489500  1
  Mg  Mg55  1  0.63590300  0.20132300  0.76635500  1
  Mg  Mg56  1  0.81902400  0.50652400  0.79687500  1
  Mg  Mg57  1  0.30597600  0.36847600  0.76562500  1
  Mg  Mg58  1  0.48909700  0.67367700  0.79614500  1
  Mg  Mg59  1  0.98617700  0.17659700  0.79760500  1
  Pb  Pb60  1  0.94791700  0.38541700  0.23437500  1
  Pb  Pb61  1  0.42708300  0.23958300  0.20312500  1
  Pb  Pb62  1  0.32291700  0.01041700  0.29687500  1
  Pb  Pb63  1  0.80208300  0.86458300  0.26562500  1
  Pb  Pb64  1  0.69791700  0.63541700  0.35937500  1
  Pb  Pb65  1  0.17708300  0.48958300  0.32812500  1
  Pb  Pb66  1  0.07291700  0.26041700  0.42187500  1
  Pb  Pb67  1  0.55208300  0.11458300  0.39062500  1
  Pb  Pb68  1  0.44791700  0.88541700  0.48437500  1
  Pb  Pb69  1  0.92708300  0.73958300  0.45312500  1
  Pb  Pb70  1  0.82291700  0.51041700  0.54687500  1
  Pb  Pb71  1  0.30208300  0.36458300  0.51562500  1
  Pb  Pb72  1  0.19791700  0.13541700  0.60937500  1
  Pb  Pb73  1  0.67708300  0.98958300  0.57812500  1
  Pb  Pb74  1  0.57291700  0.76041700  0.67187500  1
  Pb  Pb75  1  0.05208300  0.61458300  0.64062500  1
  Pb  Pb76  1  0.94791700  0.38541700  0.73437500  1
  Pb  Pb77  1  0.42708300  0.23958300  0.70312500  1
  Pb  Pb78  1  0.32291700  0.01041700  0.79687500  1
  Pb  Pb79  1  0.80208300  0.86458300  0.76562500  1
