# generated using pymatgen
data_Mg10Al23
_symmetry_space_group_name_H-M   'P 1'
_cell_length_a   5.50999200
_cell_length_b   5.50999196
_cell_length_c   43.16726700
_cell_angle_alpha   90.00000000
_cell_angle_beta   90.00000000
_cell_angle_gamma   120.00000024
_symmetry_Int_Tables_number   1
_chemical_formula_structural   Mg10Al23
_chemical_formula_sum   'Mg10 Al23'
_cell_volume   1134.97714849
_cell_formula_units_Z   1
loop_
 _symmetry_equiv_pos_site_id
 _symmetry_equiv_pos_as_xyz
  1  'x, y, z'
loop_
 _atom_site_type_symbol
 _atom_site_label
 _atom_site_symmetry_multiplicity
 _atom_site_fract_x
 _atom_site_fract_y
 _atom_site_fract_z
 _atom_site_occupancy
  Mg  Mg0  1  0.66666700  0.33333300  0.28841700  1
  Mg  Mg1  1  0.33333300  0.66666700  0.38841700  1
  Mg  Mg2  1  0.33333300  0.66666700  0.26158300  1
  Mg  Mg3  1  0.66666700  0.33333300  0.36158300  1
  Mg  Mg4  1  0.66666700  0.33333300  0.48841700  1
  Mg  Mg5  1  0.33333300  0.66666700  0.58841700  1
  Mg  Mg6  1  0.33333300  0.66666700  0.46158300  1
  Mg  Mg7  1  0.66666700  0.33333300  0.56158300  1
  Mg  Mg8  1  0.66666700  0.33333300  0.68841700  1
  Mg  Mg9  1  0.33333300  0.66666700  0.66158300  1
  Al  Al10  1  0.00000000  0.00000000  0.27500000  1
  Al  Al11  1  0.00000000  0.00000000  0.37500000  1
  Al  Al12  1  0.34134800  0.17067400  0.22500000  1
  Al  Al13  1  0.17067400  0.34134800  0.32500000  1
  Al  Al14  1  0.17067400  0.82932600  0.32500000  1
  Al  Al15  1  0.82932600  0.17067400  0.22500000  1
  Al  Al16  1  0.82932600  0.65865200  0.22500000  1
  Al  Al17  1  0.65865200  0.82932600  0.32500000  1
  Al  Al18  1  0.00000000  0.00000000  0.47500000  1
  Al  Al19  1  0.00000000  0.00000000  0.57500000  1
  Al  Al20  1  0.34134800  0.17067400  0.42500000  1
  Al  Al21  1  0.17067400  0.34134800  0.52500000  1
  Al  Al22  1  0.17067400  0.82932600  0.52500000  1
  Al  Al23  1  0.82932600  0.17067400  0.42500000  1
  Al  Al24  1  0.82932600  0.65865200  0.42500000  1
  Al  Al25  1  0.65865200  0.82932600  0.52500000  1
  Al  Al26  1  0.00000000  0.00000000  0.67500000  1
  Al  Al27  1  0.34134800  0.17067400  0.62500000  1
  Al  Al28  1  0.17067400  0.34134800  0.72500000  1
  Al  Al29  1  0.17067400  0.82932600  0.72500000  1
  Al  Al30  1  0.82932600  0.17067400  0.62500000  1
  Al  Al31  1  0.82932600  0.65865200  0.62500000  1
  Al  Al32  1  0.65865200  0.82932600  0.72500000  1
