# generated using pymatgen
data_Mg2Cd
_symmetry_space_group_name_H-M   'P 1'
_cell_length_a   3.17171500
_cell_length_b   16.93132419
_cell_length_c   49.41679400
_cell_angle_alpha   91.18141472
_cell_angle_beta   90.00000000
_cell_angle_gamma   90.00000000
_symmetry_Int_Tables_number   1
_chemical_formula_structural   Mg2Cd
_chemical_formula_sum   'Mg48 Cd24'
_cell_volume   2653.18368184
_cell_formula_units_Z   24
loop_
 _symmetry_equiv_pos_site_id
 _symmetry_equiv_pos_as_xyz
  1  'x, y, z'
loop_
 _atom_site_type_symbol
 _atom_site_label
 _atom_site_symmetry_multiplicity
 _atom_site_fract_x
 _atom_site_fract_y
 _atom_site_fract_z
 _atom_site_occupancy
  Mg  Mg0  1  0.00000000  0.65022200  0.29442000  1
  Mg  Mg1  1  0.50000000  0.80261300  0.27748700  1
  Mg  Mg2  1  1.00000000  0.79738700  0.22251300  1
  Mg  Mg3  1  0.50000000  0.94977800  0.20558000  1
  Mg  Mg4  1  0.50000000  0.10022200  0.24442000  1
  Mg  Mg5  1  0.00000000  0.25261300  0.22748700  1
  Mg  Mg6  1  0.50000000  0.34738700  0.27251300  1
  Mg  Mg7  1  0.00000000  0.49977800  0.25558000  1
  Mg  Mg8  1  0.00000000  0.75022200  0.39442000  1
  Mg  Mg9  1  0.50000000  0.90261300  0.37748700  1
  Mg  Mg10  1  0.00000000  0.89738700  0.32251300  1
  Mg  Mg11  1  0.50000000  0.04977800  0.30558000  1
  Mg  Mg12  1  0.50000000  0.20022200  0.34442000  1
  Mg  Mg13  1  0.00000000  0.35261300  0.32748700  1
  Mg  Mg14  1  0.50000000  0.44738700  0.37251300  1
  Mg  Mg15  1  1.00000000  0.59977800  0.35558000  1
  Mg  Mg16  1  0.00000000  0.85022200  0.49442000  1
  Mg  Mg17  1  0.50000000  0.00261300  0.47748700  1
  Mg  Mg18  1  0.00000000  0.99738700  0.42251300  1
  Mg  Mg19  1  0.50000000  0.14977800  0.40558000  1
  Mg  Mg20  1  0.50000000  0.30022200  0.44442000  1
  Mg  Mg21  1  0.00000000  0.45261300  0.42748700  1
  Mg  Mg22  1  0.50000000  0.54738700  0.47251300  1
  Mg  Mg23  1  1.00000000  0.69977800  0.45558000  1
  Mg  Mg24  1  1.00000000  0.95022200  0.59442000  1
  Mg  Mg25  1  0.50000000  0.10261300  0.57748700  1
  Mg  Mg26  1  0.00000000  0.09738700  0.52251300  1
  Mg  Mg27  1  0.50000000  0.24977800  0.50558000  1
  Mg  Mg28  1  0.50000000  0.40022200  0.54442000  1
  Mg  Mg29  1  0.00000000  0.55261300  0.52748700  1
  Mg  Mg30  1  0.50000000  0.64738700  0.57251300  1
  Mg  Mg31  1  0.00000000  0.79977800  0.55558000  1
  Mg  Mg32  1  0.00000000  0.05022200  0.69442000  1
  Mg  Mg33  1  0.50000000  0.20261300  0.67748700  1
  Mg  Mg34  1  0.00000000  0.19738700  0.62251300  1
  Mg  Mg35  1  0.50000000  0.34977800  0.60558000  1
  Mg  Mg36  1  0.50000000  0.50022200  0.64442000  1
  Mg  Mg37  1  0.00000000  0.65261300  0.62748700  1
  Mg  Mg38  1  0.50000000  0.74738700  0.67251300  1
  Mg  Mg39  1  1.00000000  0.89977800  0.65558000  1
  Mg  Mg40  1  1.00000000  0.15022200  0.79442000  1
  Mg  Mg41  1  0.50000000  0.30261300  0.77748700  1
  Mg  Mg42  1  0.00000000  0.29738700  0.72251300  1
  Mg  Mg43  1  0.50000000  0.44977800  0.70558000  1
  Mg  Mg44  1  0.50000000  0.60022200  0.74442000  1
  Mg  Mg45  1  0.00000000  0.75261300  0.72748700  1
  Mg  Mg46  1  0.50000000  0.84738700  0.77251300  1
  Mg  Mg47  1  0.00000000  0.99977800  0.75558000  1
  Cd  Cd48  1  1.00000000  0.94937700  0.26118000  1
  Cd  Cd49  1  0.50000000  0.65062300  0.23882000  1
  Cd  Cd50  1  0.50000000  0.39937700  0.21118000  1
  Cd  Cd51  1  0.00000000  0.20062300  0.28882000  1
  Cd  Cd52  1  0.00000000  0.04937700  0.36118000  1
  Cd  Cd53  1  0.50000000  0.75062300  0.33882000  1
  Cd  Cd54  1  0.50000000  0.49937700  0.31118000  1
  Cd  Cd55  1  1.00000000  0.30062300  0.38882000  1
  Cd  Cd56  1  1.00000000  0.14937700  0.46118000  1
  Cd  Cd57  1  0.50000000  0.85062300  0.43882000  1
  Cd  Cd58  1  0.50000000  0.59937700  0.41118000  1
  Cd  Cd59  1  0.00000000  0.40062300  0.48882000  1
  Cd  Cd60  1  0.00000000  0.24937700  0.56118000  1
  Cd  Cd61  1  0.50000000  0.95062300  0.53882000  1
  Cd  Cd62  1  0.50000000  0.69937700  0.51118000  1
  Cd  Cd63  1  1.00000000  0.50062300  0.58882000  1
  Cd  Cd64  1  0.00000000  0.34937700  0.66118000  1
  Cd  Cd65  1  0.50000000  0.05062300  0.63882000  1
  Cd  Cd66  1  0.50000000  0.79937700  0.61118000  1
  Cd  Cd67  1  0.00000000  0.60062300  0.68882000  1
  Cd  Cd68  1  0.00000000  0.44937700  0.76118000  1
  Cd  Cd69  1  0.50000000  0.15062300  0.73882000  1
  Cd  Cd70  1  0.50000000  0.89937700  0.71118000  1
  Cd  Cd71  1  1.00000000  0.70062300  0.78882000  1
