# generated using pymatgen
data_La4Mg
_symmetry_space_group_name_H-M   'P 1'
_cell_length_a   3.76223900
_cell_length_b   3.76223900
_cell_length_c   73.88194800
_cell_angle_alpha   90.00000000
_cell_angle_beta   90.00000000
_cell_angle_gamma   90.00000000
_symmetry_Int_Tables_number   1
_chemical_formula_structural   La4Mg
_chemical_formula_sum   'La16 Mg4'
_cell_volume   1045.75776947
_cell_formula_units_Z   4
loop_
 _symmetry_equiv_pos_site_id
 _symmetry_equiv_pos_as_xyz
  1  'x, y, z'
loop_
 _atom_site_type_symbol
 _atom_site_label
 _atom_site_symmetry_multiplicity
 _atom_site_fract_x
 _atom_site_fract_y
 _atom_site_fract_z
 _atom_site_occupancy
  La  La0  1  0.50000000  0.50000000  0.44667800  1
  La  La1  1  0.00000000  0.00000000  0.48224500  1
  La  La2  1  0.50000000  0.50000000  0.18442200  1
  La  La3  1  0.00000000  0.00000000  0.21998900  1
  La  La4  1  0.00000000  0.00000000  0.28001100  1
  La  La5  1  0.50000000  0.50000000  0.31557800  1
  La  La6  1  0.00000000  0.00000000  0.35108900  1
  La  La7  1  0.50000000  0.50000000  0.38665500  1
  La  La8  1  0.50000000  0.50000000  0.78001100  1
  La  La9  1  0.00000000  0.00000000  0.81557800  1
  La  La10  1  0.50000000  0.50000000  0.51775500  1
  La  La11  1  0.00000000  0.00000000  0.55332200  1
  La  La12  1  0.00000000  0.00000000  0.61334500  1
  La  La13  1  0.50000000  0.50000000  0.64891100  1
  La  La14  1  0.00000000  0.00000000  0.68442200  1
  La  La15  1  0.50000000  0.50000000  0.71998900  1
  Mg  Mg16  1  0.00000000  0.00000000  0.41666700  1
  Mg  Mg17  1  0.50000000  0.50000000  0.25000000  1
  Mg  Mg18  1  0.00000000  0.00000000  0.75000000  1
  Mg  Mg19  1  0.50000000  0.50000000  0.58333300  1
