# generated using pymatgen
data_Mg3Zn5
_symmetry_space_group_name_H-M   'P 1'
_cell_length_a   5.07402229
_cell_length_b   14.70723601
_cell_length_c   50.49845100
_cell_angle_alpha   88.21601723
_cell_angle_beta   89.67566990
_cell_angle_gamma   90.29193359
_symmetry_Int_Tables_number   1
_chemical_formula_structural   Mg3Zn5
_chemical_formula_sum   'Mg36 Zn60'
_cell_volume   3766.49971225
_cell_formula_units_Z   12
loop_
 _symmetry_equiv_pos_site_id
 _symmetry_equiv_pos_as_xyz
  1  'x, y, z'
loop_
 _atom_site_type_symbol
 _atom_site_label
 _atom_site_symmetry_multiplicity
 _atom_site_fract_x
 _atom_site_fract_y
 _atom_site_fract_z
 _atom_site_occupancy
  Mg  Mg0  1  0.18160200  0.87888200  0.46956700  1
  Mg  Mg1  1  0.17881500  0.14533400  0.38951000  1
  Mg  Mg2  1  0.68499300  0.85600100  0.43585000  1
  Mg  Mg3  1  0.68364400  0.23162500  0.41448800  1
  Mg  Mg4  1  0.68126700  0.19454000  0.47718400  1
  Mg  Mg5  1  0.68080900  0.82690000  0.37778600  1
  Mg  Mg6  1  0.18208100  0.07610700  0.49597700  1
  Mg  Mg7  1  0.68215800  0.45127600  0.39914800  1
  Mg  Mg8  1  0.18372100  0.60679400  0.31765900  1
  Mg  Mg9  1  0.18150000  0.93994100  0.40341600  1
  Mg  Mg10  1  0.18259800  0.51067900  0.48641900  1
  Mg  Mg11  1  0.18320400  0.17222200  0.32721700  1
  Mg  Mg12  1  0.68453500  0.48836100  0.33645200  1
  Mg  Mg13  1  0.18420000  0.80401900  0.34407000  1
  Mg  Mg14  1  0.18698700  0.53756700  0.42412700  1
  Mg  Mg15  1  0.18430200  0.74296000  0.41022000  1
  Mg  Mg16  1  0.68160200  0.62888200  0.71956700  1
  Mg  Mg17  1  0.67881500  0.89533400  0.63951000  1
  Mg  Mg18  1  0.68744100  0.39157800  0.50437300  1
  Mg  Mg19  1  0.18499300  0.60600100  0.68585000  1
  Mg  Mg20  1  0.18364400  0.98162500  0.66448800  1
  Mg  Mg21  1  0.18550600  0.70633500  0.51388000  1
  Mg  Mg22  1  0.18126700  0.94454000  0.72718400  1
  Mg  Mg23  1  0.18080900  0.57690000  0.62778600  1
  Mg  Mg24  1  0.68208100  0.82610700  0.74597700  1
  Mg  Mg25  1  0.18215800  0.20127600  0.64914800  1
  Mg  Mg26  1  0.17836100  0.04132300  0.55926300  1
  Mg  Mg27  1  0.68372100  0.35679400  0.56765900  1
  Mg  Mg28  1  0.68150000  0.68994100  0.65341600  1
  Mg  Mg29  1  0.68259800  0.26067900  0.73641900  1
  Mg  Mg30  1  0.68320400  0.92222200  0.57721700  1
  Mg  Mg31  1  0.18453500  0.23836100  0.58645200  1
  Mg  Mg32  1  0.68420000  0.55401900  0.59407000  1
  Mg  Mg33  1  0.68029500  0.72656600  0.54975600  1
  Mg  Mg34  1  0.68698700  0.28756700  0.67412700  1
  Mg  Mg35  1  0.68430200  0.49296000  0.66022000  1
  Zn  Zn36  1  0.17880000  0.21146200  0.44451700  1
  Zn  Zn37  1  0.68217100  0.03300200  0.39787900  1
  Zn  Zn38  1  0.43229300  0.62932300  0.37063500  1
  Zn  Zn39  1  0.92805800  0.30932800  0.36217700  1
  Zn  Zn40  1  0.42994900  0.05582200  0.44197800  1
  Zn  Zn41  1  0.18700200  0.47143900  0.36911900  1
  Zn  Zn42  1  0.93133400  0.37359200  0.45155400  1
  Zn  Zn43  1  0.68202600  0.79295700  0.49211500  1
  Zn  Zn44  1  0.18331700  0.29078700  0.49108300  1
  Zn  Zn45  1  0.68841000  0.52603200  0.45461300  1
  Zn  Zn46  1  0.68363100  0.64989900  0.41575800  1
  Zn  Zn47  1  0.94205400  0.68886800  0.45974400  1
  Zn  Zn48  1  0.43446800  0.30930900  0.36208300  1
  Zn  Zn49  1  0.93585300  0.62707900  0.37165800  1
  Zn  Zn50  1  0.18248500  0.39211400  0.32255400  1
  Zn  Zn51  1  0.42374800  0.99403300  0.35389200  1
  Zn  Zn52  1  0.43774400  0.37357300  0.45145900  1
  Zn  Zn53  1  0.67735100  0.98119400  0.48253700  1
  Zn  Zn54  1  0.42865400  0.69134600  0.45908400  1
  Zn  Zn55  1  0.68845100  0.70170700  0.33109900  1
  Zn  Zn56  1  0.93714800  0.99155500  0.35455300  1
  Zn  Zn57  1  0.67739200  0.15686900  0.35902300  1
  Zn  Zn58  1  0.93350800  0.05357800  0.44300100  1
  Zn  Zn59  1  0.18290100  0.34145000  0.40681800  1
  Zn  Zn60  1  0.68377600  0.88994400  0.32152100  1
  Zn  Zn61  1  0.67880000  0.96146200  0.69451700  1
  Zn  Zn62  1  0.18217100  0.78300200  0.64787900  1
  Zn  Zn63  1  0.68641400  0.05699500  0.52842100  1
  Zn  Zn64  1  0.93229300  0.37932300  0.62063500  1
  Zn  Zn65  1  0.42805800  0.05932800  0.61217700  1
  Zn  Zn66  1  0.92994900  0.80582200  0.69197800  1
  Zn  Zn67  1  0.43290100  0.21645000  0.53181800  1
  Zn  Zn68  1  0.68700200  0.22143900  0.61911900  1
  Zn  Zn69  1  0.18370700  0.82228600  0.56307600  1
  Zn  Zn70  1  0.43133400  0.12359200  0.70155400  1
  Zn  Zn71  1  0.42949200  0.89969300  0.52410000  1
  Zn  Zn72  1  0.18202600  0.54295700  0.74211500  1
  Zn  Zn73  1  0.68331700  0.04078700  0.74108300  1
  Zn  Zn74  1  0.18841000  0.27603200  0.70461300  1
  Zn  Zn75  1  0.18363100  0.39989900  0.66575800  1
  Zn  Zn76  1  0.68209500  0.61061500  0.50056000  1
  Zn  Zn77  1  0.44205400  0.43886800  0.70974400  1
  Zn  Zn78  1  0.93446800  0.05930900  0.61208300  1
  Zn  Zn79  1  0.43585300  0.37707900  0.62165800  1
  Zn  Zn80  1  0.68248500  0.14211400  0.57255400  1
  Zn  Zn81  1  0.92374800  0.74403300  0.60389200  1
  Zn  Zn82  1  0.93774400  0.12357300  0.70145900  1
  Zn  Zn83  1  0.93290100  0.21645000  0.53181800  1
  Zn  Zn84  1  0.17735100  0.73119400  0.73253700  1
  Zn  Zn85  1  0.93355500  0.89879000  0.52447600  1
  Zn  Zn86  1  0.92865400  0.44134600  0.70908400  1
  Zn  Zn87  1  0.18845100  0.45170700  0.58109900  1
  Zn  Zn88  1  0.43714800  0.74155500  0.60455300  1
  Zn  Zn89  1  0.17739200  0.90686900  0.60902300  1
  Zn  Zn90  1  0.93224700  0.53411100  0.53916000  1
  Zn  Zn91  1  0.43350800  0.80357800  0.69300100  1
  Zn  Zn92  1  0.68290100  0.09145000  0.65681800  1
  Zn  Zn93  1  0.43631000  0.53320800  0.53953700  1
  Zn  Zn94  1  0.18377600  0.63994400  0.57152100  1
  Zn  Zn95  1  0.17938800  0.37590600  0.53521500  1
