# generated using pymatgen
data_Yb2Mg
_symmetry_space_group_name_H-M   'P 1'
_cell_length_a   6.97474255
_cell_length_b   18.56282100
_cell_length_c   41.21503400
_cell_angle_alpha   90.00000000
_cell_angle_beta   87.90218194
_cell_angle_gamma   90.00000000
_symmetry_Int_Tables_number   1
_chemical_formula_structural   Yb2Mg
_chemical_formula_sum   'Yb64 Mg32'
_cell_volume   5332.57109617
_cell_formula_units_Z   32
loop_
 _symmetry_equiv_pos_site_id
 _symmetry_equiv_pos_as_xyz
  1  'x, y, z'
loop_
 _atom_site_type_symbol
 _atom_site_label
 _atom_site_symmetry_multiplicity
 _atom_site_fract_x
 _atom_site_fract_y
 _atom_site_fract_z
 _atom_site_occupancy
  Yb  Yb0  1  0.67307700  0.90769400  0.21153800  1
  Yb  Yb1  1  0.51923100  0.71665000  0.25000000  1
  Yb  Yb2  1  0.17307700  0.59230600  0.21153800  1
  Yb  Yb3  1  0.01923100  0.78335000  0.25000000  1
  Yb  Yb4  1  0.51923100  0.40769400  0.25000000  1
  Yb  Yb5  1  0.67307700  0.21665000  0.21153800  1
  Yb  Yb6  1  0.01923100  0.09230600  0.25000000  1
  Yb  Yb7  1  0.17307700  0.28335000  0.21153800  1
  Yb  Yb8  1  0.36538500  0.90769400  0.28846200  1
  Yb  Yb9  1  0.21153800  0.71665000  0.32692300  1
  Yb  Yb10  1  0.86538500  0.59230600  0.28846200  1
  Yb  Yb11  1  0.71153800  0.78335000  0.32692300  1
  Yb  Yb12  1  0.21153800  0.40769400  0.32692300  1
  Yb  Yb13  1  0.36538500  0.21665000  0.28846200  1
  Yb  Yb14  1  0.71153800  0.09230600  0.32692300  1
  Yb  Yb15  1  0.86538500  0.28335000  0.28846200  1
  Yb  Yb16  1  0.05769200  0.90769400  0.36538500  1
  Yb  Yb17  1  0.90384600  0.71665000  0.40384600  1
  Yb  Yb18  1  0.55769200  0.59230600  0.36538500  1
  Yb  Yb19  1  0.40384600  0.78335000  0.40384600  1
  Yb  Yb20  1  0.90384600  0.40769400  0.40384600  1
  Yb  Yb21  1  0.05769200  0.21665000  0.36538500  1
  Yb  Yb22  1  0.40384600  0.09230600  0.40384600  1
  Yb  Yb23  1  0.55769200  0.28335000  0.36538500  1
  Yb  Yb24  1  0.75000000  0.90769400  0.44230800  1
  Yb  Yb25  1  0.59615400  0.71665000  0.48076900  1
  Yb  Yb26  1  0.25000000  0.59230600  0.44230800  1
  Yb  Yb27  1  0.09615400  0.78335000  0.48076900  1
  Yb  Yb28  1  0.59615400  0.40769400  0.48076900  1
  Yb  Yb29  1  0.75000000  0.21665000  0.44230800  1
  Yb  Yb30  1  0.09615400  0.09230600  0.48076900  1
  Yb  Yb31  1  0.25000000  0.28335000  0.44230800  1
  Yb  Yb32  1  0.44230800  0.90769400  0.51923100  1
  Yb  Yb33  1  0.28846200  0.71665000  0.55769200  1
  Yb  Yb34  1  0.94230800  0.59230600  0.51923100  1
  Yb  Yb35  1  0.78846200  0.78335000  0.55769200  1
  Yb  Yb36  1  0.28846200  0.40769400  0.55769200  1
  Yb  Yb37  1  0.44230800  0.21665000  0.51923100  1
  Yb  Yb38  1  0.78846200  0.09230600  0.55769200  1
  Yb  Yb39  1  0.94230800  0.28335000  0.51923100  1
  Yb  Yb40  1  0.13461500  0.90769400  0.59615400  1
  Yb  Yb41  1  0.98076900  0.71665000  0.63461500  1
  Yb  Yb42  1  0.63461500  0.59230600  0.59615400  1
  Yb  Yb43  1  0.48076900  0.78335000  0.63461500  1
  Yb  Yb44  1  0.98076900  0.40769400  0.63461500  1
  Yb  Yb45  1  0.13461500  0.21665000  0.59615400  1
  Yb  Yb46  1  0.48076900  0.09230600  0.63461500  1
  Yb  Yb47  1  0.63461500  0.28335000  0.59615400  1
  Yb  Yb48  1  0.82692300  0.90769400  0.67307700  1
  Yb  Yb49  1  0.67307700  0.71665000  0.71153800  1
  Yb  Yb50  1  0.32692300  0.59230600  0.67307700  1
  Yb  Yb51  1  0.17307700  0.78335000  0.71153800  1
  Yb  Yb52  1  0.67307700  0.40769400  0.71153800  1
  Yb  Yb53  1  0.82692300  0.21665000  0.67307700  1
  Yb  Yb54  1  0.17307700  0.09230600  0.71153800  1
  Yb  Yb55  1  0.32692300  0.28335000  0.67307700  1
  Yb  Yb56  1  0.51923100  0.90769400  0.75000000  1
  Yb  Yb57  1  0.36538500  0.71665000  0.78846200  1
  Yb  Yb58  1  0.01923100  0.59230600  0.75000000  1
  Yb  Yb59  1  0.86538500  0.78335000  0.78846200  1
  Yb  Yb60  1  0.36538500  0.40769400  0.78846200  1
  Yb  Yb61  1  0.51923100  0.21665000  0.75000000  1
  Yb  Yb62  1  0.86538500  0.09230600  0.78846200  1
  Yb  Yb63  1  0.01923100  0.28335000  0.75000000  1
  Mg  Mg64  1  0.67307700  0.55949300  0.21153800  1
  Mg  Mg65  1  0.17307700  0.94050700  0.21153800  1
  Mg  Mg66  1  0.51923100  0.05949300  0.25000000  1
  Mg  Mg67  1  0.01923100  0.44050700  0.25000000  1
  Mg  Mg68  1  0.36538500  0.55949300  0.28846200  1
  Mg  Mg69  1  0.86538500  0.94050700  0.28846200  1
  Mg  Mg70  1  0.21153800  0.05949300  0.32692300  1
  Mg  Mg71  1  0.71153800  0.44050700  0.32692300  1
  Mg  Mg72  1  0.05769200  0.55949300  0.36538500  1
  Mg  Mg73  1  0.55769200  0.94050700  0.36538500  1
  Mg  Mg74  1  0.90384600  0.05949300  0.40384600  1
  Mg  Mg75  1  0.40384600  0.44050700  0.40384600  1
  Mg  Mg76  1  0.75000000  0.55949300  0.44230800  1
  Mg  Mg77  1  0.25000000  0.94050700  0.44230800  1
  Mg  Mg78  1  0.59615400  0.05949300  0.48076900  1
  Mg  Mg79  1  0.09615400  0.44050700  0.48076900  1
  Mg  Mg80  1  0.44230800  0.55949300  0.51923100  1
  Mg  Mg81  1  0.94230800  0.94050700  0.51923100  1
  Mg  Mg82  1  0.28846200  0.05949300  0.55769200  1
  Mg  Mg83  1  0.78846200  0.44050700  0.55769200  1
  Mg  Mg84  1  0.13461500  0.55949300  0.59615400  1
  Mg  Mg85  1  0.63461500  0.94050700  0.59615400  1
  Mg  Mg86  1  0.98076900  0.05949300  0.63461500  1
  Mg  Mg87  1  0.48076900  0.44050700  0.63461500  1
  Mg  Mg88  1  0.82692300  0.55949300  0.67307700  1
  Mg  Mg89  1  0.32692300  0.94050700  0.67307700  1
  Mg  Mg90  1  0.67307700  0.05949300  0.71153800  1
  Mg  Mg91  1  0.17307700  0.44050700  0.71153800  1
  Mg  Mg92  1  0.51923100  0.55949300  0.75000000  1
  Mg  Mg93  1  0.01923100  0.94050700  0.75000000  1
  Mg  Mg94  1  0.36538500  0.05949300  0.78846200  1
  Mg  Mg95  1  0.86538500  0.44050700  0.78846200  1
