# generated using pymatgen
data_Pr15Mg8
_symmetry_space_group_name_H-M   'P 1'
_cell_length_a   6.91212396
_cell_length_b   8.96230632
_cell_length_c   41.02294500
_cell_angle_alpha   87.97771942
_cell_angle_beta   89.18576045
_cell_angle_gamma   83.06188699
_symmetry_Int_Tables_number   1
_chemical_formula_structural   Pr15Mg8
_chemical_formula_sum   'Pr30 Mg16'
_cell_volume   2521.00542010
_cell_formula_units_Z   2
loop_
 _symmetry_equiv_pos_site_id
 _symmetry_equiv_pos_as_xyz
  1  'x, y, z'
loop_
 _atom_site_type_symbol
 _atom_site_label
 _atom_site_symmetry_multiplicity
 _atom_site_fract_x
 _atom_site_fract_y
 _atom_site_fract_z
 _atom_site_occupancy
  Pr  Pr0  1  0.00625900  0.42831700  0.74379900  1
  Pr  Pr1  1  0.40537100  0.05886200  0.76902100  1
  Pr  Pr2  1  0.31395100  0.50524000  0.66687600  1
  Pr  Pr3  1  0.10475100  0.81273800  0.71917600  1
  Pr  Pr4  1  0.71306400  0.13578600  0.69209800  1
  Pr  Pr5  1  0.61457100  0.75136500  0.71672100  1
  Pr  Pr6  1  0.62164300  0.58216300  0.58995300  1
  Pr  Pr7  1  0.41244400  0.88966100  0.64225300  1
  Pr  Pr8  1  0.02075600  0.21270900  0.61517500  1
  Pr  Pr9  1  0.92226300  0.82828800  0.63979800  1
  Pr  Pr10  1  0.92933600  0.65908600  0.51303000  1
  Pr  Pr11  1  0.72013600  0.96658400  0.56533000  1
  Pr  Pr12  1  0.32844800  0.28963200  0.53825200  1
  Pr  Pr13  1  0.22995600  0.90521100  0.56287500  1
  Pr  Pr14  1  0.23702800  0.73600900  0.43610700  1
  Pr  Pr15  1  0.02782800  0.04350700  0.48840700  1
  Pr  Pr16  1  0.63614100  0.36655500  0.46132900  1
  Pr  Pr17  1  0.53764800  0.98213400  0.48595200  1
  Pr  Pr18  1  0.54472000  0.81293200  0.35918400  1
  Pr  Pr19  1  0.33552000  0.12043000  0.41148400  1
  Pr  Pr20  1  0.94383300  0.44347800  0.38440600  1
  Pr  Pr21  1  0.84534000  0.05905700  0.40902900  1
  Pr  Pr22  1  0.85241200  0.88985600  0.28226100  1
  Pr  Pr23  1  0.64321300  0.19735300  0.33456100  1
  Pr  Pr24  1  0.25152500  0.52040100  0.30748300  1
  Pr  Pr25  1  0.15303300  0.13598000  0.33210600  1
  Pr  Pr26  1  0.16010500  0.96677900  0.20533800  1
  Pr  Pr27  1  0.95090500  0.27427600  0.25763800  1
  Pr  Pr28  1  0.55921700  0.59732400  0.23056000  1
  Pr  Pr29  1  0.46072500  0.21290300  0.25518300  1
  Mg  Mg30  1  0.90099700  0.08620500  0.77011500  1
  Mg  Mg31  1  0.51063300  0.40097500  0.74270600  1
  Mg  Mg32  1  0.20868900  0.16312800  0.69319200  1
  Mg  Mg33  1  0.81832600  0.47789800  0.66578300  1
  Mg  Mg34  1  0.51638100  0.24005100  0.61626900  1
  Mg  Mg35  1  0.12601800  0.55482100  0.58886000  1
  Mg  Mg36  1  0.82407300  0.31697400  0.53934600  1
  Mg  Mg37  1  0.43371000  0.63174400  0.51193600  1
  Mg  Mg38  1  0.13176600  0.39389700  0.46242300  1
  Mg  Mg39  1  0.74140300  0.70866700  0.43501300  1
  Mg  Mg40  1  0.43945800  0.47082000  0.38549900  1
  Mg  Mg41  1  0.04909500  0.78559000  0.35809000  1
  Mg  Mg42  1  0.74715000  0.54774300  0.30857600  1
  Mg  Mg43  1  0.35678700  0.86251300  0.28116700  1
  Mg  Mg44  1  0.05484300  0.62466600  0.23165300  1
  Mg  Mg45  1  0.66448000  0.93943600  0.20424400  1
