# generated using pymatgen
data_Mg9Pd4
_symmetry_space_group_name_H-M   'P 1'
_cell_length_a   8.83883700
_cell_length_b   11.93708038
_cell_length_c   44.35540600
_cell_angle_alpha   87.49946255
_cell_angle_beta   90.00000000
_cell_angle_gamma   68.27044156
_symmetry_Int_Tables_number   1
_chemical_formula_structural   Mg9Pd4
_chemical_formula_sum   'Mg81 Pd36'
_cell_volume   4342.58916709
_cell_formula_units_Z   9
loop_
 _symmetry_equiv_pos_site_id
 _symmetry_equiv_pos_as_xyz
  1  'x, y, z'
loop_
 _atom_site_type_symbol
 _atom_site_label
 _atom_site_symmetry_multiplicity
 _atom_site_fract_x
 _atom_site_fract_y
 _atom_site_fract_z
 _atom_site_occupancy
  Mg  Mg0  1  0.52965000  0.36605000  0.22914300  1
  Mg  Mg1  1  0.96063700  0.07872600  0.30097400  1
  Mg  Mg2  1  0.10430000  0.36605000  0.22914300  1
  Mg  Mg3  1  0.16777800  0.23909400  0.29317900  1
  Mg  Mg4  1  0.73679000  0.52641900  0.22134700  1
  Mg  Mg5  1  0.59312800  0.23909400  0.29317900  1
  Mg  Mg6  1  0.32507500  0.92450100  0.21453000  1
  Mg  Mg7  1  0.64408700  0.71182500  0.26769900  1
  Mg  Mg8  1  0.75042500  0.92450100  0.21453000  1
  Mg  Mg9  1  0.37235300  0.68064400  0.30779100  1
  Mg  Mg10  1  0.05334000  0.89331900  0.25462200  1
  Mg  Mg11  1  0.94700300  0.68064400  0.30779100  1
  Mg  Mg12  1  0.71799200  0.94706400  0.28753800  1
  Mg  Mg13  1  0.43070600  0.13858800  0.23965700  1
  Mg  Mg14  1  0.33494400  0.94706400  0.28753800  1
  Mg  Mg15  1  0.97943600  0.65808000  0.23478400  1
  Mg  Mg16  1  0.26672200  0.46655600  0.28266500  1
  Mg  Mg17  1  0.36248400  0.65808000  0.23478400  1
  Mg  Mg18  1  0.84871400  0.30257200  0.26116100  1
  Mg  Mg19  1  0.97371400  0.05257200  0.19866100  1
  Mg  Mg20  1  0.27965000  0.86605000  0.35414300  1
  Mg  Mg21  1  0.71063700  0.57872600  0.42597400  1
  Mg  Mg22  1  0.85430000  0.86605000  0.35414300  1
  Mg  Mg23  1  0.91777800  0.73909400  0.41817900  1
  Mg  Mg24  1  0.48679000  0.02641900  0.34634700  1
  Mg  Mg25  1  0.34312800  0.73909400  0.41817900  1
  Mg  Mg26  1  0.07507500  0.42450100  0.33953000  1
  Mg  Mg27  1  0.39408700  0.21182500  0.39269900  1
  Mg  Mg28  1  0.50042500  0.42450100  0.33953000  1
  Mg  Mg29  1  0.12235300  0.18064400  0.43279100  1
  Mg  Mg30  1  0.80334000  0.39331900  0.37962200  1
  Mg  Mg31  1  0.69700300  0.18064400  0.43279100  1
  Mg  Mg32  1  0.46799200  0.44706400  0.41253800  1
  Mg  Mg33  1  0.18070600  0.63858800  0.36465700  1
  Mg  Mg34  1  0.08494400  0.44706400  0.41253800  1
  Mg  Mg35  1  0.72943600  0.15808000  0.35978400  1
  Mg  Mg36  1  0.01672200  0.96655600  0.40766500  1
  Mg  Mg37  1  0.11248400  0.15808000  0.35978400  1
  Mg  Mg38  1  0.59871400  0.80257200  0.38616100  1
  Mg  Mg39  1  0.72371400  0.55257200  0.32366100  1
  Mg  Mg40  1  0.02965000  0.36605000  0.47914300  1
  Mg  Mg41  1  0.46063700  0.07872600  0.55097400  1
  Mg  Mg42  1  0.60430000  0.36605000  0.47914300  1
  Mg  Mg43  1  0.66777800  0.23909400  0.54317900  1
  Mg  Mg44  1  0.23679000  0.52641900  0.47134700  1
  Mg  Mg45  1  0.09312800  0.23909400  0.54317900  1
  Mg  Mg46  1  0.82507500  0.92450100  0.46453000  1
  Mg  Mg47  1  0.14408700  0.71182500  0.51769900  1
  Mg  Mg48  1  0.25042500  0.92450100  0.46453000  1
  Mg  Mg49  1  0.87235300  0.68064400  0.55779100  1
  Mg  Mg50  1  0.55334000  0.89331900  0.50462200  1
  Mg  Mg51  1  0.44700300  0.68064400  0.55779100  1
  Mg  Mg52  1  0.21799200  0.94706400  0.53753800  1
  Mg  Mg53  1  0.93070600  0.13858800  0.48965700  1
  Mg  Mg54  1  0.83494400  0.94706400  0.53753800  1
  Mg  Mg55  1  0.47943600  0.65808000  0.48478400  1
  Mg  Mg56  1  0.76672200  0.46655600  0.53266500  1
  Mg  Mg57  1  0.86248400  0.65808000  0.48478400  1
  Mg  Mg58  1  0.34871400  0.30257200  0.51116100  1
  Mg  Mg59  1  0.47371400  0.05257200  0.44866100  1
  Mg  Mg60  1  0.77965000  0.86605000  0.60414300  1
  Mg  Mg61  1  0.21063700  0.57872600  0.67597400  1
  Mg  Mg62  1  0.35430000  0.86605000  0.60414300  1
  Mg  Mg63  1  0.41777800  0.73909400  0.66817900  1
  Mg  Mg64  1  0.98679000  0.02641900  0.59634700  1
  Mg  Mg65  1  0.84312800  0.73909400  0.66817900  1
  Mg  Mg66  1  0.57507500  0.42450100  0.58953000  1
  Mg  Mg67  1  0.89408700  0.21182500  0.64269900  1
  Mg  Mg68  1  0.00042500  0.42450100  0.58953000  1
  Mg  Mg69  1  0.62235300  0.18064400  0.68279100  1
  Mg  Mg70  1  0.30334000  0.39331900  0.62962200  1
  Mg  Mg71  1  0.19700300  0.18064400  0.68279100  1
  Mg  Mg72  1  0.96799200  0.44706400  0.66253800  1
  Mg  Mg73  1  0.68070600  0.63858800  0.61465700  1
  Mg  Mg74  1  0.58494400  0.44706400  0.66253800  1
  Mg  Mg75  1  0.22943600  0.15808000  0.60978400  1
  Mg  Mg76  1  0.51672200  0.96655600  0.65766500  1
  Mg  Mg77  1  0.61248400  0.15808000  0.60978400  1
  Mg  Mg78  1  0.09871400  0.80257200  0.63616100  1
  Mg  Mg79  1  0.22371400  0.55257200  0.57366100  1
  Mg  Mg80  1  0.97371400  0.05257200  0.69866100  1
  Pd  Pd81  1  0.12922300  0.11528400  0.24548300  1
  Pd  Pd82  1  0.84892600  0.30214900  0.19876700  1
  Pd  Pd83  1  0.75549300  0.11528400  0.24548300  1
  Pd  Pd84  1  0.56820500  0.48986100  0.27683900  1
  Pd  Pd85  1  0.09850200  0.80299600  0.19855500  1
  Pd  Pd86  1  0.94193500  0.48986100  0.27683900  1
  Pd  Pd87  1  0.32788000  0.34423900  0.18824400  1
  Pd  Pd88  1  0.61954700  0.76090600  0.20907700  1
  Pd  Pd89  1  0.87922300  0.61528400  0.37048300  1
  Pd  Pd90  1  0.59892600  0.80214900  0.32376700  1
  Pd  Pd91  1  0.50549300  0.61528400  0.37048300  1
  Pd  Pd92  1  0.31820500  0.98986100  0.40183900  1
  Pd  Pd93  1  0.84850200  0.30299600  0.32355500  1
  Pd  Pd94  1  0.69193500  0.98986100  0.40183900  1
  Pd  Pd95  1  0.07788000  0.84423900  0.31324400  1
  Pd  Pd96  1  0.36954700  0.26090600  0.33407700  1
  Pd  Pd97  1  0.62922300  0.11528400  0.49548300  1
  Pd  Pd98  1  0.34892600  0.30214900  0.44876700  1
  Pd  Pd99  1  0.25549300  0.11528400  0.49548300  1
  Pd  Pd100  1  0.06820500  0.48986100  0.52683900  1
  Pd  Pd101  1  0.59850200  0.80299600  0.44855500  1
  Pd  Pd102  1  0.44193500  0.48986100  0.52683900  1
  Pd  Pd103  1  0.82788000  0.34423900  0.43824400  1
  Pd  Pd104  1  0.11954700  0.76090600  0.45907700  1
  Pd  Pd105  1  0.37922300  0.61528400  0.62048300  1
  Pd  Pd106  1  0.09892600  0.80214900  0.57376700  1
  Pd  Pd107  1  0.00549300  0.61528400  0.62048300  1
  Pd  Pd108  1  0.81820500  0.98986100  0.65183900  1
  Pd  Pd109  1  0.34850200  0.30299600  0.57355500  1
  Pd  Pd110  1  0.19193500  0.98986100  0.65183900  1
  Pd  Pd111  1  0.57788000  0.84423900  0.56324400  1
  Pd  Pd112  1  0.86954700  0.26090600  0.58407700  1
  Pd  Pd113  1  0.84892600  0.30214900  0.69876700  1
  Pd  Pd114  1  0.09850200  0.80299600  0.69855500  1
  Pd  Pd115  1  0.32788000  0.34423900  0.68824400  1
  Pd  Pd116  1  0.61954700  0.76090600  0.70907700  1
