# generated using pymatgen
data_Mg8B31
_symmetry_space_group_name_H-M   'P 1'
_cell_length_a   7.42725500
_cell_length_b   7.03001057
_cell_length_c   44.60570800
_cell_angle_alpha   90.78128318
_cell_angle_beta   90.00000000
_cell_angle_gamma   90.00000000
_symmetry_Int_Tables_number   1
_chemical_formula_structural   Mg8B31
_chemical_formula_sum   'Mg32 B124'
_cell_volume   2328.81168884
_cell_formula_units_Z   4
loop_
 _symmetry_equiv_pos_site_id
 _symmetry_equiv_pos_as_xyz
  1  'x, y, z'
loop_
 _atom_site_type_symbol
 _atom_site_label
 _atom_site_symmetry_multiplicity
 _atom_site_fract_x
 _atom_site_fract_y
 _atom_site_fract_z
 _atom_site_occupancy
  Mg  Mg0  1  0.36221400  0.29054300  0.24582100  1
  Mg  Mg1  1  0.63778600  0.42663300  0.20033300  1
  Mg  Mg2  1  0.13778600  0.98285100  0.20736000  1
  Mg  Mg3  1  0.86221400  0.73432500  0.23879400  1
  Mg  Mg4  1  0.36221400  0.90592800  0.32274400  1
  Mg  Mg5  1  0.63778600  0.04201700  0.27725600  1
  Mg  Mg6  1  0.13778600  0.59823500  0.28428300  1
  Mg  Mg7  1  0.86221400  0.34971000  0.31571700  1
  Mg  Mg8  1  0.36221400  0.52131200  0.39966700  1
  Mg  Mg9  1  0.63778600  0.65740200  0.35417900  1
  Mg  Mg10  1  0.13778600  0.21362000  0.36120600  1
  Mg  Mg11  1  0.86221400  0.96509400  0.39264000  1
  Mg  Mg12  1  0.36221400  0.13669700  0.47659100  1
  Mg  Mg13  1  0.63778600  0.27278700  0.43110200  1
  Mg  Mg14  1  0.13778600  0.82900500  0.43812900  1
  Mg  Mg15  1  0.86221400  0.58047900  0.46956300  1
  Mg  Mg16  1  0.36221400  0.75208200  0.55351400  1
  Mg  Mg17  1  0.63778600  0.88817100  0.50802500  1
  Mg  Mg18  1  0.13778600  0.44438900  0.51505200  1
  Mg  Mg19  1  0.86221400  0.19586400  0.54648600  1
  Mg  Mg20  1  0.36221400  0.36746600  0.63043700  1
  Mg  Mg21  1  0.63778600  0.50355600  0.58494800  1
  Mg  Mg22  1  0.13778600  0.05977400  0.59197500  1
  Mg  Mg23  1  0.86221400  0.81124800  0.62340900  1
  Mg  Mg24  1  0.36221400  0.98285100  0.70736000  1
  Mg  Mg25  1  0.63778600  0.11894100  0.66187100  1
  Mg  Mg26  1  0.13778600  0.67515800  0.66889800  1
  Mg  Mg27  1  0.86221400  0.42663300  0.70033300  1
  Mg  Mg28  1  0.36221400  0.59823500  0.78428300  1
  Mg  Mg29  1  0.63778600  0.73432500  0.73879400  1
  Mg  Mg30  1  0.13778600  0.29054300  0.74582100  1
  Mg  Mg31  1  0.86221400  0.04201700  0.77725600  1
  B  B32  1  0.84631100  0.09159400  0.22095300  1
  B  B33  1  0.15368900  0.62558200  0.22520100  1
  B  B34  1  0.65368900  0.39928600  0.25941400  1
  B  B35  1  0.34631100  0.93327500  0.26366300  1
  B  B36  1  0.64694100  0.98758700  0.20795200  1
  B  B37  1  0.35305900  0.72958900  0.23820200  1
  B  B38  1  0.85305900  0.29527900  0.24641300  1
  B  B39  1  0.14694100  0.42189700  0.19974100  1
  B  B40  1  0.06322000  0.41771100  0.23771800  1
  B  B41  1  0.93678000  0.06253800  0.25582100  1
  B  B42  1  0.43678000  0.96233000  0.22879400  1
  B  B43  1  0.56322000  0.60715700  0.24689700  1
  B  B44  1  0.93678000  0.29946400  0.20843600  1
  B  B45  1  0.06322000  0.27002300  0.26725600  1
  B  B46  1  0.56322000  0.75484500  0.21736000  1
  B  B47  1  0.43678000  0.11001900  0.19925600  1
  B  B48  1  0.84631100  0.70697800  0.29787600  1
  B  B49  1  0.15368900  0.24096700  0.30212400  1
  B  B50  1  0.65368900  0.01467000  0.33633700  1
  B  B51  1  0.34631100  0.54865900  0.34058600  1
  B  B52  1  0.64694100  0.60297200  0.28487500  1
  B  B53  1  0.35305900  0.34497300  0.31512500  1
  B  B54  1  0.85305900  0.91066400  0.32333600  1
  B  B55  1  0.14694100  0.03728100  0.27666400  1
  B  B56  1  0.06322000  0.03309600  0.31464100  1
  B  B57  1  0.93678000  0.67792200  0.33274400  1
  B  B58  1  0.43678000  0.57771500  0.30571700  1
  B  B59  1  0.56322000  0.22254100  0.32382100  1
  B  B60  1  0.93678000  0.91484900  0.28535900  1
  B  B61  1  0.06322000  0.88540700  0.34417900  1
  B  B62  1  0.56322000  0.37023000  0.29428300  1
  B  B63  1  0.43678000  0.72540400  0.27617900  1
  B  B64  1  0.84631100  0.32236300  0.37479900  1
  B  B65  1  0.15368900  0.85635200  0.37904700  1
  B  B66  1  0.65368900  0.63005500  0.41326000  1
  B  B67  1  0.34631100  0.16404400  0.41750900  1
  B  B68  1  0.64694100  0.21835600  0.36179800  1
  B  B69  1  0.35305900  0.96035800  0.39204800  1
  B  B70  1  0.85305900  0.52604900  0.40025900  1
  B  B71  1  0.14694100  0.65266600  0.35358700  1
  B  B72  1  0.06322000  0.64848100  0.39156400  1
  B  B73  1  0.93678000  0.29330700  0.40966700  1
  B  B74  1  0.43678000  0.19310000  0.38264000  1
  B  B75  1  0.56322000  0.83792600  0.40074400  1
  B  B76  1  0.93678000  0.53023400  0.36228200  1
  B  B77  1  0.06322000  0.50079200  0.42110200  1
  B  B78  1  0.56322000  0.98561500  0.37120600  1
  B  B79  1  0.43678000  0.34078800  0.35310300  1
  B  B80  1  0.84631100  0.93774700  0.45172200  1
  B  B81  1  0.15368900  0.47173600  0.45597000  1
  B  B82  1  0.65368900  0.24544000  0.49018300  1
  B  B83  1  0.34631100  0.77942800  0.49443200  1
  B  B84  1  0.64694100  0.83374100  0.43872100  1
  B  B85  1  0.35305900  0.57574300  0.46897100  1
  B  B86  1  0.85305900  0.14143300  0.47718300  1
  B  B87  1  0.14694100  0.26805000  0.43051000  1
  B  B88  1  0.06322000  0.26386500  0.46848700  1
  B  B89  1  0.93678000  0.90869200  0.48659000  1
  B  B90  1  0.43678000  0.80848400  0.45956300  1
  B  B91  1  0.56322000  0.45331100  0.47766700  1
  B  B92  1  0.93678000  0.14561800  0.43920500  1
  B  B93  1  0.06322000  0.11617700  0.49802500  1
  B  B94  1  0.56322000  0.60099900  0.44812900  1
  B  B95  1  0.43678000  0.95617300  0.43002600  1
  B  B96  1  0.84631100  0.55313200  0.52864500  1
  B  B97  1  0.15368900  0.08712100  0.53289400  1
  B  B98  1  0.65368900  0.86082400  0.56710600  1
  B  B99  1  0.34631100  0.39481300  0.57135500  1
  B  B100  1  0.64694100  0.44912500  0.51564400  1
  B  B101  1  0.35305900  0.19112700  0.54589400  1
  B  B102  1  0.85305900  0.75681800  0.55410600  1
  B  B103  1  0.14694100  0.88343500  0.50743300  1
  B  B104  1  0.06322000  0.87925000  0.54541000  1
  B  B105  1  0.93678000  0.52407600  0.56351400  1
  B  B106  1  0.43678000  0.42386900  0.53648600  1
  B  B107  1  0.56322000  0.06869500  0.55459000  1
  B  B108  1  0.93678000  0.76100300  0.51612800  1
  B  B109  1  0.06322000  0.73156100  0.57494800  1
  B  B110  1  0.56322000  0.21638400  0.52505200  1
  B  B111  1  0.43678000  0.57155800  0.50694900  1
  B  B112  1  0.84631100  0.16851700  0.60556800  1
  B  B113  1  0.15368900  0.70250500  0.60981700  1
  B  B114  1  0.65368900  0.47620900  0.64403000  1
  B  B115  1  0.34631100  0.01019800  0.64827800  1
  B  B116  1  0.64694100  0.06451000  0.59256700  1
  B  B117  1  0.35305900  0.80651200  0.62281700  1
  B  B118  1  0.85305900  0.37220200  0.63102900  1
  B  B119  1  0.14694100  0.49882000  0.58435600  1
  B  B120  1  0.06322000  0.49463400  0.62233300  1
  B  B121  1  0.93678000  0.13946100  0.64043700  1
  B  B122  1  0.43678000  0.03925400  0.61341000  1
  B  B123  1  0.56322000  0.68408000  0.63151300  1
  B  B124  1  0.93678000  0.37638800  0.59305100  1
  B  B125  1  0.06322000  0.34694600  0.65187100  1
  B  B126  1  0.56322000  0.83176800  0.60197500  1
  B  B127  1  0.43678000  0.18694200  0.58387200  1
  B  B128  1  0.84631100  0.78390100  0.68249100  1
  B  B129  1  0.15368900  0.31789000  0.68674000  1
  B  B130  1  0.65368900  0.09159400  0.72095300  1
  B  B131  1  0.34631100  0.62558200  0.72520100  1
  B  B132  1  0.64694100  0.67989500  0.66949000  1
  B  B133  1  0.35305900  0.42189700  0.69974100  1
  B  B134  1  0.85305900  0.98758700  0.70795200  1
  B  B135  1  0.14694100  0.11420400  0.66127900  1
  B  B136  1  0.06322000  0.11001900  0.69925600  1
  B  B137  1  0.93678000  0.75484500  0.71736000  1
  B  B138  1  0.43678000  0.65463800  0.69033300  1
  B  B139  1  0.56322000  0.29946400  0.70843600  1
  B  B140  1  0.93678000  0.99177200  0.66997400  1
  B  B141  1  0.06322000  0.96233000  0.72879400  1
  B  B142  1  0.56322000  0.44715300  0.67889800  1
  B  B143  1  0.43678000  0.80232700  0.66079500  1
  B  B144  1  0.84631100  0.39928600  0.75941400  1
  B  B145  1  0.15368900  0.93327500  0.76366300  1
  B  B146  1  0.64694100  0.29527900  0.74641300  1
  B  B147  1  0.35305900  0.03728100  0.77666400  1
  B  B148  1  0.85305900  0.60297200  0.78487500  1
  B  B149  1  0.14694100  0.72958900  0.73820200  1
  B  B150  1  0.06322000  0.72540400  0.77617900  1
  B  B151  1  0.43678000  0.27002300  0.76725600  1
  B  B152  1  0.56322000  0.91484900  0.78535900  1
  B  B153  1  0.93678000  0.60715700  0.74689700  1
  B  B154  1  0.56322000  0.06253800  0.75582100  1
  B  B155  1  0.43678000  0.41771100  0.73771800  1
