# generated using pymatgen
data_Mg4In11
_symmetry_space_group_name_H-M   'P 1'
_cell_length_a   5.76415204
_cell_length_b   5.76415133
_cell_length_c   42.81621700
_cell_angle_alpha   92.50429073
_cell_angle_beta   92.50429042
_cell_angle_gamma   110.54097733
_symmetry_Int_Tables_number   1
_chemical_formula_structural   Mg4In11
_chemical_formula_sum   'Mg8 In22'
_cell_volume   1328.21798597
_cell_formula_units_Z   2
loop_
 _symmetry_equiv_pos_site_id
 _symmetry_equiv_pos_as_xyz
  1  'x, y, z'
loop_
 _atom_site_type_symbol
 _atom_site_label
 _atom_site_symmetry_multiplicity
 _atom_site_fract_x
 _atom_site_fract_y
 _atom_site_fract_z
 _atom_site_occupancy
  Mg  Mg0  1  0.40384600  0.40384600  0.75000000  1
  Mg  Mg1  1  0.86538500  0.86538500  0.67307700  1
  Mg  Mg2  1  0.32692300  0.32692300  0.59615400  1
  Mg  Mg3  1  0.78846200  0.78846200  0.51923100  1
  Mg  Mg4  1  0.25000000  0.25000000  0.44230800  1
  Mg  Mg5  1  0.71153800  0.71153800  0.36538500  1
  Mg  Mg6  1  0.17307700  0.17307700  0.28846200  1
  Mg  Mg7  1  0.63461500  0.63461500  0.21153800  1
  In  In8  1  0.90384600  0.90384600  0.75000000  1
  In  In9  1  0.36538500  0.36538500  0.67307700  1
  In  In10  1  0.88461500  0.38461500  0.71153800  1
  In  In11  1  0.38461500  0.88461500  0.71153800  1
  In  In12  1  0.82692300  0.82692300  0.59615400  1
  In  In13  1  0.34615400  0.84615400  0.63461500  1
  In  In14  1  0.84615400  0.34615400  0.63461500  1
  In  In15  1  0.28846200  0.28846200  0.51923100  1
  In  In16  1  0.80769200  0.30769200  0.55769200  1
  In  In17  1  0.30769200  0.80769200  0.55769200  1
  In  In18  1  0.75000000  0.75000000  0.44230800  1
  In  In19  1  0.26923100  0.76923100  0.48076900  1
  In  In20  1  0.76923100  0.26923100  0.48076900  1
  In  In21  1  0.21153800  0.21153800  0.36538500  1
  In  In22  1  0.73076900  0.23076900  0.40384600  1
  In  In23  1  0.23076900  0.73076900  0.40384600  1
  In  In24  1  0.67307700  0.67307700  0.28846200  1
  In  In25  1  0.19230800  0.69230800  0.32692300  1
  In  In26  1  0.69230800  0.19230800  0.32692300  1
  In  In27  1  0.13461500  0.13461500  0.21153800  1
  In  In28  1  0.65384600  0.15384600  0.25000000  1
  In  In29  1  0.15384600  0.65384600  0.25000000  1
