# generated using pymatgen
data_Mg38Al73
_symmetry_space_group_name_H-M   'P 1'
_cell_length_a   9.54358615
_cell_length_b   10.24190089
_cell_length_c   42.48596600
_cell_angle_alpha   92.17885991
_cell_angle_beta   83.55124098
_cell_angle_gamma   62.23093986
_symmetry_Int_Tables_number   1
_chemical_formula_structural   Mg38Al73
_chemical_formula_sum   'Mg38 Al73'
_cell_volume   3631.92719116
_cell_formula_units_Z   1
loop_
 _symmetry_equiv_pos_site_id
 _symmetry_equiv_pos_as_xyz
  1  'x, y, z'
loop_
 _atom_site_type_symbol
 _atom_site_label
 _atom_site_symmetry_multiplicity
 _atom_site_fract_x
 _atom_site_fract_y
 _atom_site_fract_z
 _atom_site_occupancy
  Mg  Mg0  1  0.20939000  0.00992600  0.24638000  1
  Mg  Mg1  1  0.94314200  0.88414000  0.23799500  1
  Mg  Mg2  1  0.62605600  0.47867600  0.27763000  1
  Mg  Mg3  1  0.70939000  0.94742600  0.30888000  1
  Mg  Mg4  1  0.02647600  0.35289000  0.26924500  1
  Mg  Mg5  1  0.44314200  0.82164000  0.30049500  1
  Mg  Mg6  1  0.12605600  0.41617600  0.34013000  1
  Mg  Mg7  1  0.20939000  0.88492600  0.37138000  1
  Mg  Mg8  1  0.52647600  0.29039000  0.33174500  1
  Mg  Mg9  1  0.94314200  0.75914000  0.36299500  1
  Mg  Mg10  1  0.62605600  0.35367600  0.40263000  1
  Mg  Mg11  1  0.70939000  0.82242600  0.43388000  1
  Mg  Mg12  1  0.02647600  0.22789000  0.39424500  1
  Mg  Mg13  1  0.44314200  0.69664000  0.42549500  1
  Mg  Mg14  1  0.12605600  0.29117600  0.46513000  1
  Mg  Mg15  1  0.20939000  0.75992600  0.49638000  1
  Mg  Mg16  1  0.52647600  0.16539000  0.45674500  1
  Mg  Mg17  1  0.94314200  0.63414000  0.48799500  1
  Mg  Mg18  1  0.62605600  0.22867600  0.52763000  1
  Mg  Mg19  1  0.70939000  0.69742600  0.55888000  1
  Mg  Mg20  1  0.02647600  0.10289000  0.51924500  1
  Mg  Mg21  1  0.44314200  0.57164000  0.55049500  1
  Mg  Mg22  1  0.12605600  0.16617600  0.59013000  1
  Mg  Mg23  1  0.20939000  0.63492600  0.62138000  1
  Mg  Mg24  1  0.52647600  0.04039000  0.58174500  1
  Mg  Mg25  1  0.94314200  0.50914000  0.61299500  1
  Mg  Mg26  1  0.62605600  0.10367600  0.65263000  1
  Mg  Mg27  1  0.70939000  0.57242600  0.68388000  1
  Mg  Mg28  1  0.02647600  0.97789000  0.64424500  1
  Mg  Mg29  1  0.44314200  0.44664000  0.67549500  1
  Mg  Mg30  1  0.12605600  0.04117600  0.71513000  1
  Mg  Mg31  1  0.20939000  0.50992600  0.74638000  1
  Mg  Mg32  1  0.52647600  0.91539000  0.70674500  1
  Mg  Mg33  1  0.94314200  0.38414000  0.73799500  1
  Mg  Mg34  1  0.62605600  0.97867600  0.77763000  1
  Mg  Mg35  1  0.70939000  0.44742600  0.80888000  1
  Mg  Mg36  1  0.02647600  0.85289000  0.76924500  1
  Mg  Mg37  1  0.44314200  0.32164000  0.80049500  1
  Al  Al38  1  0.57626600  0.94703300  0.24218800  1
  Al  Al39  1  0.32626600  0.41578300  0.27343800  1
  Al  Al40  1  0.07626600  0.88453300  0.30468700  1
  Al  Al41  1  0.36592900  0.14940700  0.28981400  1
  Al  Al42  1  0.78660300  0.68065700  0.25856400  1
  Al  Al43  1  0.03059200  0.65015800  0.28906200  1
  Al  Al44  1  0.62194000  0.18140800  0.25781200  1
  Al  Al45  1  0.86592900  0.15091000  0.28831100  1
  Al  Al46  1  0.28660300  0.68216000  0.25706100  1
  Al  Al47  1  0.82626600  0.35328300  0.33593800  1
  Al  Al48  1  0.57626600  0.82203300  0.36718700  1
  Al  Al49  1  0.86592900  0.08690700  0.35231400  1
  Al  Al50  1  0.28660300  0.61815700  0.32106400  1
  Al  Al51  1  0.53059200  0.58765800  0.35156300  1
  Al  Al52  1  0.12194000  0.11890800  0.32031200  1
  Al  Al53  1  0.36592900  0.08841000  0.35081100  1
  Al  Al54  1  0.78660300  0.61966000  0.31956100  1
  Al  Al55  1  0.32626600  0.29078300  0.39843800  1
  Al  Al56  1  0.07626600  0.75953300  0.42968700  1
  Al  Al57  1  0.36592900  0.02440700  0.41481400  1
  Al  Al58  1  0.78660300  0.55565700  0.38356400  1
  Al  Al59  1  0.03059200  0.52515800  0.41406200  1
  Al  Al60  1  0.62194000  0.05640800  0.38281300  1
  Al  Al61  1  0.86592900  0.02591000  0.41331100  1
  Al  Al62  1  0.28660300  0.55716000  0.38206100  1
  Al  Al63  1  0.82626600  0.22828300  0.46093700  1
  Al  Al64  1  0.57626600  0.69703300  0.49218800  1
  Al  Al65  1  0.86592900  0.96190700  0.47731400  1
  Al  Al66  1  0.28660300  0.49315700  0.44606400  1
  Al  Al67  1  0.53059200  0.46265800  0.47656200  1
  Al  Al68  1  0.12194000  0.99390800  0.44531200  1
  Al  Al69  1  0.36592900  0.96341000  0.47581100  1
  Al  Al70  1  0.78660300  0.49466000  0.44456100  1
  Al  Al71  1  0.32626600  0.16578300  0.52343700  1
  Al  Al72  1  0.07626600  0.63453300  0.55468700  1
  Al  Al73  1  0.36592900  0.89940700  0.53981400  1
  Al  Al74  1  0.78660300  0.43065700  0.50856400  1
  Al  Al75  1  0.03059200  0.40015800  0.53906300  1
  Al  Al76  1  0.62194000  0.93140800  0.50781200  1
  Al  Al77  1  0.86592900  0.90091000  0.53831100  1
  Al  Al78  1  0.28660300  0.43216000  0.50706100  1
  Al  Al79  1  0.82626600  0.10328300  0.58593700  1
  Al  Al80  1  0.57626600  0.57203300  0.61718700  1
  Al  Al81  1  0.86592900  0.83690700  0.60231400  1
  Al  Al82  1  0.28660300  0.36815700  0.57106400  1
  Al  Al83  1  0.53059200  0.33765800  0.60156200  1
  Al  Al84  1  0.12194000  0.86890800  0.57031200  1
  Al  Al85  1  0.36592900  0.83841000  0.60081100  1
  Al  Al86  1  0.78660300  0.36966000  0.56956100  1
  Al  Al87  1  0.32626600  0.04078300  0.64843700  1
  Al  Al88  1  0.07626600  0.50953300  0.67968700  1
  Al  Al89  1  0.36592900  0.77440700  0.66481400  1
  Al  Al90  1  0.78660300  0.30565700  0.63356400  1
  Al  Al91  1  0.03059200  0.27515800  0.66406200  1
  Al  Al92  1  0.62194000  0.80640800  0.63281200  1
  Al  Al93  1  0.86592900  0.77591000  0.66331100  1
  Al  Al94  1  0.28660300  0.30716000  0.63206100  1
  Al  Al95  1  0.82626600  0.97828300  0.71093800  1
  Al  Al96  1  0.57626600  0.44703300  0.74218700  1
  Al  Al97  1  0.86592900  0.71190700  0.72731400  1
  Al  Al98  1  0.28660300  0.24315700  0.69606400  1
  Al  Al99  1  0.53059200  0.21265800  0.72656200  1
  Al  Al100  1  0.12194000  0.74390800  0.69531200  1
  Al  Al101  1  0.36592900  0.71341000  0.72581100  1
  Al  Al102  1  0.78660300  0.24466000  0.69456100  1
  Al  Al103  1  0.32626600  0.91578300  0.77343800  1
  Al  Al104  1  0.07626600  0.38453300  0.80468700  1
  Al  Al105  1  0.36592900  0.64940700  0.78981400  1
  Al  Al106  1  0.78660300  0.18065700  0.75856400  1
  Al  Al107  1  0.03059200  0.15015800  0.78906200  1
  Al  Al108  1  0.62194000  0.68140800  0.75781200  1
  Al  Al109  1  0.86592900  0.65091000  0.78831100  1
  Al  Al110  1  0.28660300  0.18216000  0.75706100  1
