# generated using pymatgen
data_Ce2Mg23
_symmetry_space_group_name_H-M   'P 1'
_cell_length_a   5.91556090
_cell_length_b   7.86989903
_cell_length_c   51.13613300
_cell_angle_alpha   88.75436156
_cell_angle_beta   86.68408432
_cell_angle_gamma   67.92408970
_symmetry_Int_Tables_number   1
_chemical_formula_structural   Ce2Mg23
_chemical_formula_sum   'Ce4 Mg46'
_cell_volume   2202.41018646
_cell_formula_units_Z   2
loop_
 _symmetry_equiv_pos_site_id
 _symmetry_equiv_pos_as_xyz
  1  'x, y, z'
loop_
 _atom_site_type_symbol
 _atom_site_label
 _atom_site_symmetry_multiplicity
 _atom_site_fract_x
 _atom_site_fract_y
 _atom_site_fract_z
 _atom_site_occupancy
  Ce  Ce0  1  0.32822700  0.64024900  0.70329700  1
  Ce  Ce1  1  0.89965600  0.64024900  0.56044000  1
  Ce  Ce2  1  0.47108400  0.64024900  0.41758200  1
  Ce  Ce3  1  0.04251300  0.64024900  0.27472500  1
  Mg  Mg4  1  0.73711900  0.85283400  0.67292800  1
  Mg  Mg5  1  0.91933500  0.42766500  0.73366600  1
  Mg  Mg6  1  0.70675000  0.85283400  0.73366600  1
  Mg  Mg7  1  0.94970400  0.42766500  0.67292800  1
  Mg  Mg8  1  0.47874400  0.28904400  0.75346900  1
  Mg  Mg9  1  0.17771000  0.99145500  0.65312400  1
  Mg  Mg10  1  0.52891600  0.28904400  0.65312400  1
  Mg  Mg11  1  0.12753800  0.99145500  0.75346900  1
  Mg  Mg12  1  0.82822700  0.14024900  0.70329700  1
  Mg  Mg13  1  0.32822700  0.14024900  0.70329700  1
  Mg  Mg14  1  0.30854800  0.85283400  0.53007000  1
  Mg  Mg15  1  0.49076300  0.42766500  0.59080900  1
  Mg  Mg16  1  0.27817900  0.85283400  0.59080900  1
  Mg  Mg17  1  0.52113200  0.42766500  0.53007000  1
  Mg  Mg18  1  0.05017200  0.28904400  0.61061200  1
  Mg  Mg19  1  0.74913900  0.99145500  0.51026700  1
  Mg  Mg20  1  0.10034400  0.28904400  0.51026700  1
  Mg  Mg21  1  0.69896700  0.99145500  0.61061200  1
  Mg  Mg22  1  0.11394100  0.64024900  0.63186800  1
  Mg  Mg23  1  0.61394100  0.64024900  0.63186800  1
  Mg  Mg24  1  0.39965600  0.14024900  0.56044000  1
  Mg  Mg25  1  0.89965600  0.14024900  0.56044000  1
  Mg  Mg26  1  0.87997700  0.85283400  0.38721300  1
  Mg  Mg27  1  0.06219200  0.42766500  0.44795200  1
  Mg  Mg28  1  0.84960700  0.85283400  0.44795200  1
  Mg  Mg29  1  0.09256100  0.42766500  0.38721300  1
  Mg  Mg30  1  0.62160100  0.28904400  0.46775500  1
  Mg  Mg31  1  0.32056700  0.99145500  0.36741000  1
  Mg  Mg32  1  0.67177300  0.28904400  0.36741000  1
  Mg  Mg33  1  0.27039500  0.99145500  0.46775500  1
  Mg  Mg34  1  0.68537000  0.64024900  0.48901100  1
  Mg  Mg35  1  0.18537000  0.64024900  0.48901100  1
  Mg  Mg36  1  0.97108400  0.14024900  0.41758200  1
  Mg  Mg37  1  0.47108400  0.14024900  0.41758200  1
  Mg  Mg38  1  0.45140500  0.85283400  0.24435600  1
  Mg  Mg39  1  0.63362000  0.42766500  0.30509400  1
  Mg  Mg40  1  0.42103600  0.85283400  0.30509400  1
  Mg  Mg41  1  0.66398900  0.42766500  0.24435600  1
  Mg  Mg42  1  0.19302900  0.28904400  0.32489700  1
  Mg  Mg43  1  0.89199600  0.99145500  0.22455300  1
  Mg  Mg44  1  0.24320200  0.28904400  0.22455300  1
  Mg  Mg45  1  0.84182400  0.99145500  0.32489700  1
  Mg  Mg46  1  0.25679800  0.64024900  0.34615400  1
  Mg  Mg47  1  0.75679800  0.64024900  0.34615400  1
  Mg  Mg48  1  0.54251300  0.14024900  0.27472500  1
  Mg  Mg49  1  0.04251300  0.14024900  0.27472500  1
