# generated using pymatgen
data_Mg40Zn73
_symmetry_space_group_name_H-M   'P 1'
_cell_length_a   5.07402209
_cell_length_b   22.10207791
_cell_length_c   42.67993100
_cell_angle_alpha   98.00895109
_cell_angle_beta   93.24549340
_cell_angle_gamma   83.83945518
_symmetry_Int_Tables_number   1
_chemical_formula_structural   Mg40Zn73
_chemical_formula_sum   'Mg40 Zn73'
_cell_volume   4708.12433190
_cell_formula_units_Z   1
loop_
 _symmetry_equiv_pos_site_id
 _symmetry_equiv_pos_as_xyz
  1  'x, y, z'
loop_
 _atom_site_type_symbol
 _atom_site_label
 _atom_site_symmetry_multiplicity
 _atom_site_fract_x
 _atom_site_fract_y
 _atom_site_fract_z
 _atom_site_occupancy
  Mg  Mg0  1  0.44628000  0.74434200  0.37568900  1
  Mg  Mg1  1  0.31014500  0.98427000  0.34892300  1
  Mg  Mg2  1  0.08438500  0.41715300  0.31303500  1
  Mg  Mg3  1  0.92053000  0.76433000  0.33739600  1
  Mg  Mg4  1  0.82269400  0.01106600  0.39116000  1
  Mg  Mg5  1  0.52900600  0.59650000  0.38549400  1
  Mg  Mg6  1  0.09043000  0.32611900  0.24643900  1
  Mg  Mg7  1  0.86410200  0.80493300  0.27351300  1
  Mg  Mg8  1  0.63372300  0.23626600  0.24154500  1
  Mg  Mg9  1  0.96193700  0.55819700  0.21974900  1
  Mg  Mg10  1  0.70024600  0.15211000  0.29787400  1
  Mg  Mg11  1  0.15090800  0.33299700  0.36936400  1
  Mg  Mg12  1  0.36781400  0.84712800  0.32175000  1
  Mg  Mg13  1  0.53776800  0.50656800  0.31890100  1
  Mg  Mg14  1  0.24686400  0.06269500  0.29200800  1
  Mg  Mg15  1  0.69420200  0.24314400  0.36447000  1
  Mg  Mg16  1  0.33835200  0.82492100  0.23522000  1
  Mg  Mg17  1  0.25562500  0.97276300  0.22541500  1
  Mg  Mg18  1  0.47448700  0.58499300  0.26198600  1
  Mg  Mg19  1  0.41681700  0.72213500  0.28915900  1
  Mg  Mg20  1  0.24628000  0.34434200  0.57568900  1
  Mg  Mg21  1  0.11014500  0.58427000  0.54892300  1
  Mg  Mg22  1  0.88438500  0.01715300  0.51303500  1
  Mg  Mg23  1  0.72053000  0.36433000  0.53739600  1
  Mg  Mg24  1  0.62269400  0.61106600  0.59116000  1
  Mg  Mg25  1  0.32900600  0.19650000  0.58549400  1
  Mg  Mg26  1  0.89043000  0.92611900  0.44643900  1
  Mg  Mg27  1  0.66410200  0.40493300  0.47351300  1
  Mg  Mg28  1  0.43372300  0.83626600  0.44154500  1
  Mg  Mg29  1  0.76193700  0.15819700  0.41974900  1
  Mg  Mg30  1  0.50024600  0.75211000  0.49787400  1
  Mg  Mg31  1  0.95090800  0.93299700  0.56936400  1
  Mg  Mg32  1  0.16781400  0.44712800  0.52175000  1
  Mg  Mg33  1  0.33776800  0.10656800  0.51890100  1
  Mg  Mg34  1  0.04686400  0.66269500  0.49200800  1
  Mg  Mg35  1  0.49420200  0.84314400  0.56447000  1
  Mg  Mg36  1  0.13835200  0.42492100  0.43522000  1
  Mg  Mg37  1  0.05562500  0.57276300  0.42541500  1
  Mg  Mg38  1  0.27448700  0.18499300  0.46198600  1
  Mg  Mg39  1  0.21681700  0.32213500  0.48915900  1
  Zn  Zn40  1  0.55191100  0.36894000  0.21715600  1
  Zn  Zn41  1  0.84433600  0.90850200  0.33482600  1
  Zn  Zn42  1  0.17432200  0.19235600  0.27016600  1
  Zn  Zn43  1  0.64795100  0.69353800  0.22684600  1
  Zn  Zn44  1  0.99925600  0.10999900  0.35438900  1
  Zn  Zn45  1  0.63164900  0.87809500  0.38348900  1
  Zn  Zn46  1  0.89231600  0.28463200  0.30545500  1
  Zn  Zn47  1  0.23272100  0.20032300  0.39375400  1
  Zn  Zn48  1  0.75321300  0.01687500  0.25788000  1
  Zn  Zn49  1  0.27905600  0.45918100  0.25661800  1
  Zn  Zn50  1  0.94454000  0.10229500  0.23438500  1
  Zn  Zn51  1  0.98643600  0.67023900  0.38105300  1
  Zn  Zn52  1  0.58712900  0.36996900  0.27958600  1
  Zn  Zn53  1  0.00870300  0.54758500  0.29016600  1
  Zn  Zn54  1  0.94029500  0.66076100  0.27608400  1
  Zn  Zn55  1  0.03141900  0.55238800  0.35302900  1
  Zn  Zn56  1  0.23491100  0.64015600  0.32786400  1
  Zn  Zn57  1  0.50557600  0.11008200  0.35429100  1
  Zn  Zn58  1  0.15298300  0.69116800  0.22742000  1
  Zn  Zn59  1  0.19750300  0.19929400  0.33132300  1
  Zn  Zn60  1  0.54972100  0.92910700  0.28304500  1
  Zn  Zn61  1  0.78537500  0.45926400  0.25652000  1
  Zn  Zn62  1  0.39231600  0.28463200  0.30545500  1
  Zn  Zn63  1  0.13453500  0.19275900  0.20912200  1
  Zn  Zn64  1  0.44915900  0.10137800  0.23458000  1
  Zn  Zn65  1  0.72035500  0.64230400  0.32769900  1
  Zn  Zn66  1  0.85009600  0.77650400  0.20178700  1
  Zn  Zn67  1  0.06427600  0.92696000  0.28321000  1
  Zn  Zn68  1  0.77592800  0.02167800  0.32074300  1
  Zn  Zn69  1  0.33547200  0.46788500  0.37632900  1
  Zn  Zn70  1  0.13668100  0.87572500  0.38406300  1
  Zn  Zn71  1  0.49231600  0.48463200  0.20545500  1
  Zn  Zn72  1  0.84009100  0.46696800  0.37652500  1
  Zn  Zn73  1  0.79819500  0.89902400  0.22985600  1
  Zn  Zn74  1  0.61030900  0.37690700  0.34074300  1
  Zn  Zn75  1  0.35191100  0.96894000  0.41715600  1
  Zn  Zn76  1  0.64433600  0.50850200  0.53482600  1
  Zn  Zn77  1  0.97432200  0.79235600  0.47016600  1
  Zn  Zn78  1  0.44795100  0.29353800  0.42684600  1
  Zn  Zn79  1  0.79925600  0.70999900  0.55438900  1
  Zn  Zn80  1  0.43164900  0.47809500  0.58348900  1
  Zn  Zn81  1  0.69231600  0.88463200  0.50545500  1
  Zn  Zn82  1  0.03272100  0.80032300  0.59375400  1
  Zn  Zn83  1  0.55321300  0.61687500  0.45788000  1
  Zn  Zn84  1  0.07905600  0.05918100  0.45661800  1
  Zn  Zn85  1  0.74454000  0.70229500  0.43438500  1
  Zn  Zn86  1  0.78643600  0.27023900  0.58105300  1
  Zn  Zn87  1  0.38712900  0.96996900  0.47958600  1
  Zn  Zn88  1  0.80870300  0.14758500  0.49016600  1
  Zn  Zn89  1  0.74029500  0.26076100  0.47608400  1
  Zn  Zn90  1  0.83141900  0.15238800  0.55302900  1
  Zn  Zn91  1  0.03491100  0.24015600  0.52786400  1
  Zn  Zn92  1  0.30557600  0.71008200  0.55429100  1
  Zn  Zn93  1  0.95298300  0.29116800  0.42742000  1
  Zn  Zn94  1  0.99750300  0.79929400  0.53132300  1
  Zn  Zn95  1  0.34972100  0.52910700  0.48304500  1
  Zn  Zn96  1  0.58537500  0.05926400  0.45652000  1
  Zn  Zn97  1  0.19231600  0.88463200  0.50545500  1
  Zn  Zn98  1  0.93453500  0.79275900  0.40912200  1
  Zn  Zn99  1  0.24915900  0.70137800  0.43458000  1
  Zn  Zn100  1  0.52035500  0.24230400  0.52769900  1
  Zn  Zn101  1  0.65009600  0.37650400  0.40178700  1
  Zn  Zn102  1  0.86427600  0.52696000  0.48321000  1
  Zn  Zn103  1  0.57592800  0.62167800  0.52074300  1
  Zn  Zn104  1  0.13547200  0.06788500  0.57632900  1
  Zn  Zn105  1  0.93668100  0.47572500  0.58406300  1
  Zn  Zn106  1  0.29231600  0.08463200  0.40545500  1
  Zn  Zn107  1  0.64009100  0.06696800  0.57652500  1
  Zn  Zn108  1  0.59819500  0.49902400  0.42985600  1
  Zn  Zn109  1  0.41030900  0.97690700  0.54074300  1
  Zn  Zn110  1  0.73453500  0.39275900  0.60912200  1
  Zn  Zn111  1  0.45009600  0.97650400  0.60178700  1
  Zn  Zn112  1  0.09231600  0.68463200  0.60545500  1
