# generated using pymatgen
data_Ho17Mg9
_symmetry_space_group_name_H-M   'P 1'
_cell_length_a   6.57379833
_cell_length_b   8.73039199
_cell_length_c   45.09759300
_cell_angle_alpha   88.72763184
_cell_angle_beta   86.05613363
_cell_angle_gamma   83.24796383
_symmetry_Int_Tables_number   1
_chemical_formula_structural   Ho17Mg9
_chemical_formula_sum   'Ho34 Mg18'
_cell_volume   2563.93535839
_cell_formula_units_Z   2
loop_
 _symmetry_equiv_pos_site_id
 _symmetry_equiv_pos_as_xyz
  1  'x, y, z'
loop_
 _atom_site_type_symbol
 _atom_site_label
 _atom_site_symmetry_multiplicity
 _atom_site_fract_x
 _atom_site_fract_y
 _atom_site_fract_z
 _atom_site_occupancy
  Ho  Ho0  1  0.02548300  0.44086800  0.74508700  1
  Ho  Ho1  1  0.42080100  0.04802100  0.76602400  1
  Ho  Ho2  1  0.35881600  0.50753500  0.67842100  1
  Ho  Ho3  1  0.13225200  0.82160500  0.72373400  1
  Ho  Ho4  1  0.75413400  0.11468700  0.69935700  1
  Ho  Ho5  1  0.64736500  0.73395000  0.72071100  1
  Ho  Ho6  1  0.69214900  0.57420200  0.61175400  1
  Ho  Ho7  1  0.46558500  0.88827200  0.65706700  1
  Ho  Ho8  1  0.08746800  0.18135400  0.63269000  1
  Ho  Ho9  1  0.98069800  0.80061700  0.65404400  1
  Ho  Ho10  1  0.02548300  0.64086800  0.54508700  1
  Ho  Ho11  1  0.79891900  0.95493900  0.59040000  1
  Ho  Ho12  1  0.42080100  0.24802100  0.56602400  1
  Ho  Ho13  1  0.31403200  0.86728400  0.58737800  1
  Ho  Ho14  1  0.35881600  0.70753500  0.47842100  1
  Ho  Ho15  1  0.13225200  0.02160500  0.52373400  1
  Ho  Ho16  1  0.75413400  0.31468700  0.49935700  1
  Ho  Ho17  1  0.64736500  0.93395000  0.52071100  1
  Ho  Ho18  1  0.69214900  0.77420200  0.41175400  1
  Ho  Ho19  1  0.46558500  0.08827200  0.45706700  1
  Ho  Ho20  1  0.08746800  0.38135400  0.43269000  1
  Ho  Ho21  1  0.98069800  0.00061700  0.45404400  1
  Ho  Ho22  1  0.02548300  0.84086800  0.34508700  1
  Ho  Ho23  1  0.79891900  0.15493900  0.39040000  1
  Ho  Ho24  1  0.42080100  0.44802100  0.36602400  1
  Ho  Ho25  1  0.31403200  0.06728400  0.38737800  1
  Ho  Ho26  1  0.35881600  0.90753500  0.27842100  1
  Ho  Ho27  1  0.13225200  0.22160500  0.32373400  1
  Ho  Ho28  1  0.75413400  0.51468700  0.29935700  1
  Ho  Ho29  1  0.64736500  0.13395000  0.32071100  1
  Ho  Ho30  1  0.69214900  0.97420200  0.21175400  1
  Ho  Ho31  1  0.46558500  0.28827200  0.25706700  1
  Ho  Ho32  1  0.08746800  0.58135400  0.23269000  1
  Ho  Ho33  1  0.98069800  0.20061700  0.25404400  1
  Mg  Mg34  1  0.91186900  0.09982700  0.76781000  1
  Mg  Mg35  1  0.53441500  0.38906200  0.74330100  1
  Mg  Mg36  1  0.24520200  0.16649400  0.70114300  1
  Mg  Mg37  1  0.86774800  0.45572800  0.67663400  1
  Mg  Mg38  1  0.57853600  0.23316100  0.63447700  1
  Mg  Mg39  1  0.20108100  0.52239500  0.60996800  1
  Mg  Mg40  1  0.91186900  0.29982700  0.56781000  1
  Mg  Mg41  1  0.53441500  0.58906200  0.54330100  1
  Mg  Mg42  1  0.24520200  0.36649400  0.50114300  1
  Mg  Mg43  1  0.86774800  0.65572800  0.47663400  1
  Mg  Mg44  1  0.57853600  0.43316100  0.43447700  1
  Mg  Mg45  1  0.20108100  0.72239500  0.40996800  1
  Mg  Mg46  1  0.91186900  0.49982700  0.36781000  1
  Mg  Mg47  1  0.53441500  0.78906200  0.34330100  1
  Mg  Mg48  1  0.24520200  0.56649400  0.30114300  1
  Mg  Mg49  1  0.86774800  0.85572800  0.27663400  1
  Mg  Mg50  1  0.57853600  0.63316100  0.23447700  1
  Mg  Mg51  1  0.20108100  0.92239500  0.20996800  1
