# generated using pymatgen
data_Mg35Bi22
_symmetry_space_group_name_H-M   'P 1'
_cell_length_a   8.19369232
_cell_length_b   8.82222126
_cell_length_c   43.07514200
_cell_angle_alpha   90.14909405
_cell_angle_beta   95.45760833
_cell_angle_gamma   62.33002037
_symmetry_Int_Tables_number   1
_chemical_formula_structural   Mg35Bi22
_chemical_formula_sum   'Mg35 Bi22'
_cell_volume   2742.10263200
_cell_formula_units_Z   1
loop_
 _symmetry_equiv_pos_site_id
 _symmetry_equiv_pos_as_xyz
  1  'x, y, z'
loop_
 _atom_site_type_symbol
 _atom_site_label
 _atom_site_symmetry_multiplicity
 _atom_site_fract_x
 _atom_site_fract_y
 _atom_site_fract_z
 _atom_site_occupancy
  Mg  Mg0  1  0.52707700  0.59279700  0.20145800  1
  Mg  Mg1  1  0.70365000  0.92591200  0.22105300  1
  Mg  Mg2  1  0.30127500  0.36429100  0.18801600  1
  Mg  Mg3  1  0.10602400  0.48753300  0.25408900  1
  Mg  Mg4  1  0.28259700  0.82064900  0.27368400  1
  Mg  Mg5  1  0.88022300  0.25902800  0.24064800  1
  Mg  Mg6  1  0.68497200  0.38227000  0.30672100  1
  Mg  Mg7  1  0.86154400  0.71538600  0.32631600  1
  Mg  Mg8  1  0.45917000  0.15376500  0.29327900  1
  Mg  Mg9  1  0.26391900  0.27700700  0.35935200  1
  Mg  Mg10  1  0.44049200  0.61012300  0.37894700  1
  Mg  Mg11  1  0.03811700  0.04850200  0.34591100  1
  Mg  Mg12  1  0.84286600  0.17174400  0.41198400  1
  Mg  Mg13  1  0.01943900  0.50486000  0.43157900  1
  Mg  Mg14  1  0.61706500  0.94323900  0.39854200  1
  Mg  Mg15  1  0.42181400  0.06648100  0.46461500  1
  Mg  Mg16  1  0.59838700  0.39959700  0.48421100  1
  Mg  Mg17  1  0.19601200  0.83797600  0.45117400  1
  Mg  Mg18  1  0.00076100  0.96121800  0.51724700  1
  Mg  Mg19  1  0.17733400  0.29433300  0.53684200  1
  Mg  Mg20  1  0.77496000  0.73271300  0.50380600  1
  Mg  Mg21  1  0.57970800  0.85595400  0.56987900  1
  Mg  Mg22  1  0.75628100  0.18907000  0.58947400  1
  Mg  Mg23  1  0.35390700  0.62744900  0.55643700  1
  Mg  Mg24  1  0.15865600  0.75069100  0.62251000  1
  Mg  Mg25  1  0.33522900  0.08380700  0.64210500  1
  Mg  Mg26  1  0.93285400  0.52218600  0.60906900  1
  Mg  Mg27  1  0.73760300  0.64542800  0.67514200  1
  Mg  Mg28  1  0.91417600  0.97854400  0.69473700  1
  Mg  Mg29  1  0.51180200  0.41692300  0.66170000  1
  Mg  Mg30  1  0.31655100  0.54016500  0.72777300  1
  Mg  Mg31  1  0.49312300  0.87328100  0.74736800  1
  Mg  Mg32  1  0.09074900  0.31166000  0.71433200  1
  Mg  Mg33  1  0.89549800  0.43490200  0.78040500  1
  Mg  Mg34  1  0.66969600  0.20639700  0.76696300  1
  Bi  Bi35  1  0.27767200  0.12278200  0.23263300  1
  Bi  Bi36  1  0.12962700  0.72904300  0.20947200  1
  Bi  Bi37  1  0.85661900  0.01751900  0.28526500  1
  Bi  Bi38  1  0.70857500  0.62378000  0.26210400  1
  Bi  Bi39  1  0.43556700  0.91225500  0.33789600  1
  Bi  Bi40  1  0.28752200  0.51851700  0.31473500  1
  Bi  Bi41  1  0.01451400  0.80699200  0.39052800  1
  Bi  Bi42  1  0.86647000  0.41325400  0.36736700  1
  Bi  Bi43  1  0.59346200  0.70172900  0.44315900  1
  Bi  Bi44  1  0.44541700  0.30799100  0.41999800  1
  Bi  Bi45  1  0.17240900  0.59646600  0.49579100  1
  Bi  Bi46  1  0.02436400  0.20272700  0.47263000  1
  Bi  Bi47  1  0.75135600  0.49120300  0.54842300  1
  Bi  Bi48  1  0.60331200  0.09746400  0.52526200  1
  Bi  Bi49  1  0.33030400  0.38594000  0.60105400  1
  Bi  Bi50  1  0.18225900  0.99220100  0.57789300  1
  Bi  Bi51  1  0.90925100  0.28067600  0.65368600  1
  Bi  Bi52  1  0.76120600  0.88693800  0.63052500  1
  Bi  Bi53  1  0.48819800  0.17541300  0.70631700  1
  Bi  Bi54  1  0.34015400  0.78167500  0.68315600  1
  Bi  Bi55  1  0.06714600  0.07015000  0.75894900  1
  Bi  Bi56  1  0.91910100  0.67641200  0.73578800  1
