# generated using pymatgen
data_Mg11Sb8
_symmetry_space_group_name_H-M   'P 1'
_cell_length_a   4.60697300
_cell_length_b   8.59897491
_cell_length_c   45.45633900
_cell_angle_alpha   90.15053946
_cell_angle_beta   90.00000000
_cell_angle_gamma   74.46189089
_symmetry_Int_Tables_number   1
_chemical_formula_structural   Mg11Sb8
_chemical_formula_sum   'Mg22 Sb16'
_cell_volume   1734.94412858
_cell_formula_units_Z   2
loop_
 _symmetry_equiv_pos_site_id
 _symmetry_equiv_pos_as_xyz
  1  'x, y, z'
loop_
 _atom_site_type_symbol
 _atom_site_label
 _atom_site_symmetry_multiplicity
 _atom_site_fract_x
 _atom_site_fract_y
 _atom_site_fract_z
 _atom_site_occupancy
  Mg  Mg0  1  0.69370900  0.81622500  0.24615400  1
  Mg  Mg1  1  0.30909300  0.58545600  0.32307700  1
  Mg  Mg2  1  0.09093900  0.02176500  0.30004100  1
  Mg  Mg3  1  0.91186300  0.37991600  0.26919000  1
  Mg  Mg4  1  0.92447800  0.35468700  0.40000000  1
  Mg  Mg5  1  0.70632400  0.79099600  0.37696400  1
  Mg  Mg6  1  0.52724800  0.14914700  0.34611300  1
  Mg  Mg7  1  0.53986300  0.12391800  0.47692300  1
  Mg  Mg8  1  0.32170800  0.56022700  0.45388700  1
  Mg  Mg9  1  0.14263300  0.91837800  0.42303600  1
  Mg  Mg10  1  0.15524700  0.89314800  0.55384600  1
  Mg  Mg11  1  0.93709300  0.32945800  0.53081000  1
  Mg  Mg12  1  0.75801700  0.68760800  0.49995900  1
  Mg  Mg13  1  0.77063200  0.66237900  0.63076900  1
  Mg  Mg14  1  0.55247700  0.09868800  0.60773300  1
  Mg  Mg15  1  0.37340200  0.45683900  0.57688200  1
  Mg  Mg16  1  0.38601700  0.43161000  0.70769200  1
  Mg  Mg17  1  0.16786200  0.86791900  0.68465700  1
  Mg  Mg18  1  0.98878700  0.22607000  0.65380500  1
  Mg  Mg19  1  0.00140100  0.20084100  0.78461500  1
  Mg  Mg20  1  0.78324700  0.63715000  0.76158000  1
  Mg  Mg21  1  0.60417100  0.99530100  0.73072800  1
  Sb  Sb22  1  0.31890600  0.56583200  0.25444800  1
  Sb  Sb23  1  0.06851200  0.06661900  0.23786000  1
  Sb  Sb24  1  0.93429000  0.33506200  0.33137100  1
  Sb  Sb25  1  0.68389700  0.83585000  0.31478300  1
  Sb  Sb26  1  0.54967500  0.10429300  0.40829400  1
  Sb  Sb27  1  0.29928100  0.60508100  0.39170600  1
  Sb  Sb28  1  0.16506000  0.87352400  0.48521700  1
  Sb  Sb29  1  0.91466600  0.37431100  0.46862900  1
  Sb  Sb30  1  0.78044400  0.64275500  0.56214000  1
  Sb  Sb31  1  0.53005000  0.14354200  0.54555200  1
  Sb  Sb32  1  0.39582900  0.41198500  0.63906300  1
  Sb  Sb33  1  0.14543500  0.91277300  0.62247500  1
  Sb  Sb34  1  0.01121300  0.18121600  0.71598600  1
  Sb  Sb35  1  0.76082000  0.68200400  0.69939800  1
  Sb  Sb36  1  0.62659800  0.95044700  0.79290900  1
  Sb  Sb37  1  0.37620400  0.45123400  0.77632100  1
