# generated using pymatgen
data_Mg28Zn51
_symmetry_space_group_name_H-M   'P 1'
_cell_length_a   5.07402260
_cell_length_b   13.26606241
_cell_length_c   57.00757700
_cell_angle_alpha   92.18610401
_cell_angle_beta   87.66012493
_cell_angle_gamma   100.62858194
_symmetry_Int_Tables_number   1
_chemical_formula_structural   Mg28Zn51
_chemical_formula_sum   'Mg28 Zn51'
_cell_volume   3766.49990850
_cell_formula_units_Z   1
loop_
 _symmetry_equiv_pos_site_id
 _symmetry_equiv_pos_as_xyz
  1  'x, y, z'
loop_
 _atom_site_type_symbol
 _atom_site_label
 _atom_site_symmetry_multiplicity
 _atom_site_fract_x
 _atom_site_fract_y
 _atom_site_fract_z
 _atom_site_occupancy
  Mg  Mg0  1  0.20897000  0.58217500  0.42041000  1
  Mg  Mg1  1  0.75886400  0.70289300  0.43455900  1
  Mg  Mg2  1  0.08438100  0.37286200  0.45246800  1
  Mg  Mg3  1  0.85738400  0.91335600  0.45635000  1
  Mg  Mg4  1  0.34010200  0.84550500  0.42168200  1
  Mg  Mg5  1  0.40727800  0.03407400  0.47049900  1
  Mg  Mg6  1  0.53186700  0.24338600  0.43844100  1
  Mg  Mg7  1  0.27614700  0.77074300  0.46922700  1
  Mg  Mg8  1  0.95897000  0.33217500  0.67041000  1
  Mg  Mg9  1  0.16847100  0.69900200  0.62381100  1
  Mg  Mg10  1  0.52039400  0.32982400  0.53353400  1
  Mg  Mg11  1  0.50886400  0.45289300  0.68455900  1
  Mg  Mg12  1  0.64150200  0.62690400  0.59599300  1
  Mg  Mg13  1  0.83438100  0.12286200  0.70246800  1
  Mg  Mg14  1  0.52489000  0.38252300  0.58959100  1
  Mg  Mg15  1  0.60738400  0.66335600  0.70635000  1
  Mg  Mg16  1  0.96158000  0.28244200  0.61450100  1
  Mg  Mg17  1  0.72474700  0.73934400  0.54491600  1
  Mg  Mg18  1  0.84585400  0.03642400  0.60737500  1
  Mg  Mg19  1  0.40466800  0.08380700  0.52640800  1
  Mg  Mg20  1  0.09010200  0.59550500  0.67168200  1
  Mg  Mg21  1  0.08643300  0.42692800  0.50824700  1
  Mg  Mg22  1  0.27981600  0.93932000  0.63266200  1
  Mg  Mg23  1  0.84135800  0.98372500  0.55131800  1
  Mg  Mg24  1  0.15727800  0.78407400  0.72049900  1
  Mg  Mg25  1  0.28186700  0.99338600  0.68844100  1
  Mg  Mg26  1  0.19777800  0.66724600  0.51709800  1
  Mg  Mg27  1  0.02614700  0.52074300  0.71922700  1
  Zn  Zn28  1  0.87238600  0.88953500  0.39980100  1
  Zn  Zn29  1  0.02907500  0.21736500  0.41118100  1
  Zn  Zn30  1  0.87085100  0.38287900  0.40157400  1
  Zn  Zn31  1  0.64760600  0.47613800  0.43625400  1
  Zn  Zn32  1  0.74386300  0.72671400  0.49110800  1
  Zn  Zn33  1  0.58717300  0.39888300  0.47972800  1
  Zn  Zn34  1  0.41820500  0.57150600  0.47036900  1
  Zn  Zn35  1  0.19804300  0.04474200  0.42054000  1
  Zn  Zn36  1  0.71610300  0.55911500  0.39158900  1
  Zn  Zn37  1  0.36590400  0.38124200  0.40170500  1
  Zn  Zn38  1  0.93338000  0.57460200  0.46991400  1
  Zn  Zn39  1  0.90014600  0.05713400  0.49932000  1
  Zn  Zn40  1  0.68286800  0.04164600  0.42099500  1
  Zn  Zn41  1  0.25034400  0.23500600  0.48920400  1
  Zn  Zn42  1  0.74539800  0.23337000  0.48933500  1
  Zn  Zn43  1  0.96864200  0.14011100  0.45465500  1
  Zn  Zn44  1  0.08875600  0.50925700  0.59352700  1
  Zn  Zn45  1  0.62238600  0.63953500  0.64980100  1
  Zn  Zn46  1  0.39569300  0.15600000  0.61116800  1
  Zn  Zn47  1  0.06902000  0.89077800  0.50753200  1
  Zn  Zn48  1  0.50805900  0.84249800  0.58964600  1
  Zn  Zn49  1  0.80314000  0.47986800  0.63307200  1
  Zn  Zn50  1  0.68312400  0.18312400  0.57045500  1
  Zn  Zn51  1  0.27749300  0.85699100  0.54738200  1
  Zn  Zn52  1  0.77907500  0.96736500  0.66118100  1
  Zn  Zn53  1  0.36444000  0.52340100  0.55123500  1
  Zn  Zn54  1  0.62085100  0.13287900  0.65157400  1
  Zn  Zn55  1  0.39760600  0.22613800  0.68625400  1
  Zn  Zn56  1  0.02257900  0.35446600  0.56205400  1
  Zn  Zn57  1  0.64011900  0.55003700  0.51236000  1
  Zn  Zn58  1  0.49386300  0.47671400  0.74110800  1
  Zn  Zn59  1  0.33717300  0.14888300  0.72972800  1
  Zn  Zn60  1  0.16820500  0.32150600  0.72036900  1
  Zn  Zn61  1  0.00180900  0.84284700  0.58967400  1
  Zn  Zn62  1  0.56310900  0.88638100  0.50783700  1
  Zn  Zn63  1  0.34366900  0.01178200  0.57885500  1
  Zn  Zn64  1  0.94804300  0.79474200  0.67054000  1
  Zn  Zn65  1  0.85819000  0.52375000  0.55126400  1
  Zn  Zn66  1  0.18312400  0.18312400  0.57045500  1
  Zn  Zn67  1  0.46610300  0.30911500  0.64158900  1
  Zn  Zn68  1  0.11590400  0.13124200  0.65170500  1
  Zn  Zn69  1  0.68338000  0.32460200  0.71991400  1
  Zn  Zn70  1  0.65014600  0.80713400  0.74932000  1
  Zn  Zn71  1  0.43286800  0.79164600  0.67099500  1
  Zn  Zn72  1  0.72612900  0.81621100  0.62854900  1
  Zn  Zn73  1  0.00034400  0.98500600  0.73920400  1
  Zn  Zn74  1  0.29722900  0.47547000  0.63337700  1
  Zn  Zn75  1  0.18312400  0.68312400  0.57045500  1
  Zn  Zn76  1  0.49539800  0.98337000  0.73933500  1
  Zn  Zn77  1  0.71864200  0.89011100  0.70465500  1
  Zn  Zn78  1  0.97055600  0.21024900  0.52974100  1
