# generated using pymatgen
data_Ce11Mg144
_symmetry_space_group_name_H-M   'P 1'
_cell_length_a   11.88980944
_cell_length_b   11.88980897
_cell_length_c   45.94310200
_cell_angle_alpha   89.70796386
_cell_angle_beta   90.29203612
_cell_angle_gamma   104.33187700
_symmetry_Int_Tables_number   1
_chemical_formula_structural   Ce11Mg144
_chemical_formula_sum   'Ce11 Mg144'
_cell_volume   6292.60120360
_cell_formula_units_Z   1
loop_
 _symmetry_equiv_pos_site_id
 _symmetry_equiv_pos_as_xyz
  1  'x, y, z'
loop_
 _atom_site_type_symbol
 _atom_site_label
 _atom_site_symmetry_multiplicity
 _atom_site_fract_x
 _atom_site_fract_y
 _atom_site_fract_z
 _atom_site_occupancy
  Ce  Ce0  1  0.18512100  0.81487900  0.29807700  1
  Ce  Ce1  1  0.58512100  0.41487900  0.24807700  1
  Ce  Ce2  1  0.38512100  0.61487900  0.39807700  1
  Ce  Ce3  1  0.78512100  0.21487900  0.34807700  1
  Ce  Ce4  1  0.58512100  0.41487900  0.49807700  1
  Ce  Ce5  1  0.98512100  0.01487900  0.44807700  1
  Ce  Ce6  1  0.78512100  0.21487900  0.59807700  1
  Ce  Ce7  1  0.18512100  0.81487900  0.54807700  1
  Ce  Ce8  1  0.98512100  0.01487900  0.69807700  1
  Ce  Ce9  1  0.38512100  0.61487900  0.64807700  1
  Ce  Ce10  1  0.58512100  0.41487900  0.74807700  1
  Mg  Mg11  1  0.04260400  0.74481200  0.22681800  1
  Mg  Mg12  1  0.12763700  0.08494700  0.26933500  1
  Mg  Mg13  1  0.31505300  0.47236300  0.21933500  1
  Mg  Mg14  1  0.85518800  0.35739600  0.27681800  1
  Mg  Mg15  1  0.05536200  0.29584400  0.23319700  1
  Mg  Mg16  1  0.11487900  0.53391500  0.26295600  1
  Mg  Mg17  1  0.86608500  0.48512100  0.21295600  1
  Mg  Mg18  1  0.30415600  0.34463800  0.28319700  1
  Mg  Mg19  1  0.88512100  0.11487900  0.27307700  1
  Mg  Mg20  1  0.78512100  0.21487900  0.22307700  1
  Mg  Mg21  1  0.28512100  0.21487900  0.22307700  1
  Mg  Mg22  1  0.38512100  0.11487900  0.27307700  1
  Mg  Mg23  1  0.64260400  0.14481200  0.27681800  1
  Mg  Mg24  1  0.52763700  0.68494700  0.21933500  1
  Mg  Mg25  1  0.91505300  0.87236300  0.26933500  1
  Mg  Mg26  1  0.25518800  0.95739600  0.22681800  1
  Mg  Mg27  1  0.65536200  0.69584400  0.28319700  1
  Mg  Mg28  1  0.51487900  0.13391500  0.21295600  1
  Mg  Mg29  1  0.46608500  0.88512100  0.26295600  1
  Mg  Mg30  1  0.70415600  0.94463800  0.23319700  1
  Mg  Mg31  1  0.28512100  0.71487900  0.22307700  1
  Mg  Mg32  1  0.38512100  0.61487900  0.27307700  1
  Mg  Mg33  1  0.88512100  0.61487900  0.27307700  1
  Mg  Mg34  1  0.78512100  0.71487900  0.22307700  1
  Mg  Mg35  1  0.24260400  0.54481200  0.32681800  1
  Mg  Mg36  1  0.32763700  0.88494700  0.36933500  1
  Mg  Mg37  1  0.51505300  0.27236300  0.31933500  1
  Mg  Mg38  1  0.05518800  0.15739600  0.37681800  1
  Mg  Mg39  1  0.25536200  0.09584400  0.33319700  1
  Mg  Mg40  1  0.31487900  0.33391500  0.36295600  1
  Mg  Mg41  1  0.06608500  0.28512100  0.31295600  1
  Mg  Mg42  1  0.50415600  0.14463800  0.38319700  1
  Mg  Mg43  1  0.08512100  0.91487900  0.37307700  1
  Mg  Mg44  1  0.98512100  0.01487900  0.32307700  1
  Mg  Mg45  1  0.48512100  0.01487900  0.32307700  1
  Mg  Mg46  1  0.58512100  0.91487900  0.37307700  1
  Mg  Mg47  1  0.84260400  0.94481200  0.37681800  1
  Mg  Mg48  1  0.72763700  0.48494700  0.31933500  1
  Mg  Mg49  1  0.11505300  0.67236300  0.36933500  1
  Mg  Mg50  1  0.45518800  0.75739600  0.32681800  1
  Mg  Mg51  1  0.85536200  0.49584400  0.38319700  1
  Mg  Mg52  1  0.71487900  0.93391500  0.31295600  1
  Mg  Mg53  1  0.66608500  0.68512100  0.36295600  1
  Mg  Mg54  1  0.90415600  0.74463800  0.33319700  1
  Mg  Mg55  1  0.48512100  0.51487900  0.32307700  1
  Mg  Mg56  1  0.58512100  0.41487900  0.37307700  1
  Mg  Mg57  1  0.08512100  0.41487900  0.37307700  1
  Mg  Mg58  1  0.98512100  0.51487900  0.32307700  1
  Mg  Mg59  1  0.44260400  0.34481200  0.42681800  1
  Mg  Mg60  1  0.52763700  0.68494700  0.46933500  1
  Mg  Mg61  1  0.71505300  0.07236300  0.41933500  1
  Mg  Mg62  1  0.25518800  0.95739600  0.47681800  1
  Mg  Mg63  1  0.45536200  0.89584400  0.43319700  1
  Mg  Mg64  1  0.51487900  0.13391500  0.46295600  1
  Mg  Mg65  1  0.26608500  0.08512100  0.41295600  1
  Mg  Mg66  1  0.70415600  0.94463800  0.48319700  1
  Mg  Mg67  1  0.28512100  0.71487900  0.47307700  1
  Mg  Mg68  1  0.18512100  0.81487900  0.42307700  1
  Mg  Mg69  1  0.68512100  0.81487900  0.42307700  1
  Mg  Mg70  1  0.78512100  0.71487900  0.47307700  1
  Mg  Mg71  1  0.04260400  0.74481200  0.47681800  1
  Mg  Mg72  1  0.92763700  0.28494700  0.41933500  1
  Mg  Mg73  1  0.31505300  0.47236300  0.46933500  1
  Mg  Mg74  1  0.65518800  0.55739600  0.42681800  1
  Mg  Mg75  1  0.05536200  0.29584400  0.48319700  1
  Mg  Mg76  1  0.91487900  0.73391500  0.41295600  1
  Mg  Mg77  1  0.86608500  0.48512100  0.46295600  1
  Mg  Mg78  1  0.10415600  0.54463800  0.43319700  1
  Mg  Mg79  1  0.68512100  0.31487900  0.42307700  1
  Mg  Mg80  1  0.78512100  0.21487900  0.47307700  1
  Mg  Mg81  1  0.28512100  0.21487900  0.47307700  1
  Mg  Mg82  1  0.18512100  0.31487900  0.42307700  1
  Mg  Mg83  1  0.64260400  0.14481200  0.52681800  1
  Mg  Mg84  1  0.72763700  0.48494700  0.56933500  1
  Mg  Mg85  1  0.91505300  0.87236300  0.51933500  1
  Mg  Mg86  1  0.45518800  0.75739600  0.57681800  1
  Mg  Mg87  1  0.65536200  0.69584400  0.53319700  1
  Mg  Mg88  1  0.71487900  0.93391500  0.56295600  1
  Mg  Mg89  1  0.46608500  0.88512100  0.51295600  1
  Mg  Mg90  1  0.90415600  0.74463800  0.58319700  1
  Mg  Mg91  1  0.48512100  0.51487900  0.57307700  1
  Mg  Mg92  1  0.38512100  0.61487900  0.52307700  1
  Mg  Mg93  1  0.88512100  0.61487900  0.52307700  1
  Mg  Mg94  1  0.98512100  0.51487900  0.57307700  1
  Mg  Mg95  1  0.24260400  0.54481200  0.57681800  1
  Mg  Mg96  1  0.12763700  0.08494700  0.51933500  1
  Mg  Mg97  1  0.51505300  0.27236300  0.56933500  1
  Mg  Mg98  1  0.85518800  0.35739600  0.52681800  1
  Mg  Mg99  1  0.25536200  0.09584400  0.58319700  1
  Mg  Mg100  1  0.11487900  0.53391500  0.51295600  1
  Mg  Mg101  1  0.06608500  0.28512100  0.56295600  1
  Mg  Mg102  1  0.30415600  0.34463800  0.53319700  1
  Mg  Mg103  1  0.88512100  0.11487900  0.52307700  1
  Mg  Mg104  1  0.98512100  0.01487900  0.57307700  1
  Mg  Mg105  1  0.48512100  0.01487900  0.57307700  1
  Mg  Mg106  1  0.38512100  0.11487900  0.52307700  1
  Mg  Mg107  1  0.84260400  0.94481200  0.62681800  1
  Mg  Mg108  1  0.92763700  0.28494700  0.66933500  1
  Mg  Mg109  1  0.11505300  0.67236300  0.61933500  1
  Mg  Mg110  1  0.65518800  0.55739600  0.67681800  1
  Mg  Mg111  1  0.85536200  0.49584400  0.63319700  1
  Mg  Mg112  1  0.91487900  0.73391500  0.66295600  1
  Mg  Mg113  1  0.66608500  0.68512100  0.61295600  1
  Mg  Mg114  1  0.10415600  0.54463800  0.68319700  1
  Mg  Mg115  1  0.68512100  0.31487900  0.67307700  1
  Mg  Mg116  1  0.58512100  0.41487900  0.62307700  1
  Mg  Mg117  1  0.08512100  0.41487900  0.62307700  1
  Mg  Mg118  1  0.18512100  0.31487900  0.67307700  1
  Mg  Mg119  1  0.44260400  0.34481200  0.67681800  1
  Mg  Mg120  1  0.32763700  0.88494700  0.61933500  1
  Mg  Mg121  1  0.71505300  0.07236300  0.66933500  1
  Mg  Mg122  1  0.05518800  0.15739600  0.62681800  1
  Mg  Mg123  1  0.45536200  0.89584400  0.68319700  1
  Mg  Mg124  1  0.31487900  0.33391500  0.61295600  1
  Mg  Mg125  1  0.26608500  0.08512100  0.66295600  1
  Mg  Mg126  1  0.50415600  0.14463800  0.63319700  1
  Mg  Mg127  1  0.08512100  0.91487900  0.62307700  1
  Mg  Mg128  1  0.18512100  0.81487900  0.67307700  1
  Mg  Mg129  1  0.68512100  0.81487900  0.67307700  1
  Mg  Mg130  1  0.58512100  0.91487900  0.62307700  1
  Mg  Mg131  1  0.04260400  0.74481200  0.72681800  1
  Mg  Mg132  1  0.12763700  0.08494700  0.76933500  1
  Mg  Mg133  1  0.31505300  0.47236300  0.71933500  1
  Mg  Mg134  1  0.85518800  0.35739600  0.77681800  1
  Mg  Mg135  1  0.05536200  0.29584400  0.73319700  1
  Mg  Mg136  1  0.11487900  0.53391500  0.76295600  1
  Mg  Mg137  1  0.86608500  0.48512100  0.71295600  1
  Mg  Mg138  1  0.30415600  0.34463800  0.78319700  1
  Mg  Mg139  1  0.88512100  0.11487900  0.77307700  1
  Mg  Mg140  1  0.78512100  0.21487900  0.72307700  1
  Mg  Mg141  1  0.28512100  0.21487900  0.72307700  1
  Mg  Mg142  1  0.38512100  0.11487900  0.77307700  1
  Mg  Mg143  1  0.64260400  0.14481200  0.77681800  1
  Mg  Mg144  1  0.52763700  0.68494700  0.71933500  1
  Mg  Mg145  1  0.91505300  0.87236300  0.76933500  1
  Mg  Mg146  1  0.25518800  0.95739600  0.72681800  1
  Mg  Mg147  1  0.65536200  0.69584400  0.78319700  1
  Mg  Mg148  1  0.51487900  0.13391500  0.71295600  1
  Mg  Mg149  1  0.46608500  0.88512100  0.76295600  1
  Mg  Mg150  1  0.70415600  0.94463800  0.73319700  1
  Mg  Mg151  1  0.28512100  0.71487900  0.72307700  1
  Mg  Mg152  1  0.38512100  0.61487900  0.77307700  1
  Mg  Mg153  1  0.88512100  0.61487900  0.77307700  1
  Mg  Mg154  1  0.78512100  0.71487900  0.72307700  1
