# generated using pymatgen
data_MgPb
_symmetry_space_group_name_H-M   'P 1'
_cell_length_a   3.47558800
_cell_length_b   5.22762700
_cell_length_c   47.06449200
_cell_angle_alpha   90.00000000
_cell_angle_beta   90.00000000
_cell_angle_gamma   90.00000000
_symmetry_Int_Tables_number   1
_chemical_formula_structural   MgPb
_chemical_formula_sum   'Mg10 Pb10'
_cell_volume   855.11841063
_cell_formula_units_Z   10
loop_
 _symmetry_equiv_pos_site_id
 _symmetry_equiv_pos_as_xyz
  1  'x, y, z'
loop_
 _atom_site_type_symbol
 _atom_site_label
 _atom_site_symmetry_multiplicity
 _atom_site_fract_x
 _atom_site_fract_y
 _atom_site_fract_z
 _atom_site_occupancy
  Mg  Mg0  1  0.50000000  0.75000000  0.21044300  1
  Mg  Mg1  1  0.50000000  0.25000000  0.28955700  1
  Mg  Mg2  1  0.50000000  0.75000000  0.33544300  1
  Mg  Mg3  1  0.50000000  0.25000000  0.41455700  1
  Mg  Mg4  1  0.50000000  0.75000000  0.46044300  1
  Mg  Mg5  1  0.50000000  0.25000000  0.53955700  1
  Mg  Mg6  1  0.50000000  0.75000000  0.58544300  1
  Mg  Mg7  1  0.50000000  0.25000000  0.66455700  1
  Mg  Mg8  1  0.50000000  0.75000000  0.71044300  1
  Mg  Mg9  1  0.50000000  0.25000000  0.78955700  1
  Pb  Pb10  1  1.00000000  0.75000000  0.27575200  1
  Pb  Pb11  1  0.00000000  0.25000000  0.22424800  1
  Pb  Pb12  1  1.00000000  0.75000000  0.40075200  1
  Pb  Pb13  1  0.00000000  0.25000000  0.34924800  1
  Pb  Pb14  1  1.00000000  0.75000000  0.52575200  1
  Pb  Pb15  1  0.00000000  0.25000000  0.47424800  1
  Pb  Pb16  1  1.00000000  0.75000000  0.65075200  1
  Pb  Pb17  1  0.00000000  0.25000000  0.59924800  1
  Pb  Pb18  1  1.00000000  0.75000000  0.77575200  1
  Pb  Pb19  1  0.00000000  0.25000000  0.72424800  1
