# generated using pymatgen
data_Mg5Pd11
_symmetry_space_group_name_H-M   'P 1'
_cell_length_a   4.19057600
_cell_length_b   9.87844226
_cell_length_c   45.88469700
_cell_angle_alpha   91.77467978
_cell_angle_beta   90.00000000
_cell_angle_gamma   90.00000000
_symmetry_Int_Tables_number   1
_chemical_formula_structural   Mg5Pd11
_chemical_formula_sum   'Mg20 Pd44'
_cell_volume   1898.54848723
_cell_formula_units_Z   4
loop_
 _symmetry_equiv_pos_site_id
 _symmetry_equiv_pos_as_xyz
  1  'x, y, z'
loop_
 _atom_site_type_symbol
 _atom_site_label
 _atom_site_symmetry_multiplicity
 _atom_site_fract_x
 _atom_site_fract_y
 _atom_site_fract_z
 _atom_site_occupancy
  Mg  Mg0  1  0.25000000  0.23350800  0.32630000  1
  Mg  Mg1  1  0.75000000  0.99476000  0.34036700  1
  Mg  Mg2  1  0.25000000  0.59592500  0.30664500  1
  Mg  Mg3  1  0.75000000  0.63234300  0.36002200  1
  Mg  Mg4  1  0.25000000  0.93350800  0.42630000  1
  Mg  Mg5  1  0.75000000  0.69476000  0.44036700  1
  Mg  Mg6  1  0.25000000  0.29592500  0.40664500  1
  Mg  Mg7  1  0.75000000  0.33234300  0.46002200  1
  Mg  Mg8  1  0.25000000  0.63350800  0.52630000  1
  Mg  Mg9  1  0.75000000  0.39476000  0.54036700  1
  Mg  Mg10  1  0.25000000  0.99592500  0.50664500  1
  Mg  Mg11  1  0.75000000  0.03234300  0.56002200  1
  Mg  Mg12  1  0.25000000  0.33350800  0.62630000  1
  Mg  Mg13  1  0.75000000  0.09476000  0.64036700  1
  Mg  Mg14  1  0.25000000  0.69592500  0.60664500  1
  Mg  Mg15  1  0.75000000  0.73234300  0.66002200  1
  Mg  Mg16  1  0.25000000  0.03350800  0.72630000  1
  Mg  Mg17  1  0.75000000  0.79476000  0.74036700  1
  Mg  Mg18  1  0.25000000  0.39592500  0.70664500  1
  Mg  Mg19  1  0.75000000  0.43234300  0.76002200  1
  Pd  Pd20  1  0.25000000  0.36263900  0.27470500  1
  Pd  Pd21  1  0.75000000  0.16562900  0.29196100  1
  Pd  Pd22  1  0.25000000  0.96943500  0.30293700  1
  Pd  Pd23  1  0.75000000  0.55883200  0.26372900  1
  Pd  Pd24  1  0.25000000  0.46096900  0.36018100  1
  Pd  Pd25  1  0.75000000  0.76729900  0.30648500  1
  Pd  Pd26  1  0.25000000  0.06263900  0.37470500  1
  Pd  Pd27  1  0.75000000  0.86562900  0.39196100  1
  Pd  Pd28  1  0.25000000  0.66943500  0.40293700  1
  Pd  Pd29  1  0.75000000  0.25883200  0.36372900  1
  Pd  Pd30  1  0.25000000  0.79967700  0.35011500  1
  Pd  Pd31  1  0.75000000  0.42859100  0.31655200  1
  Pd  Pd32  1  0.25000000  0.16096900  0.46018100  1
  Pd  Pd33  1  0.75000000  0.46729900  0.40648500  1
  Pd  Pd34  1  0.25000000  0.76263900  0.47470500  1
  Pd  Pd35  1  0.75000000  0.56562900  0.49196100  1
  Pd  Pd36  1  0.25000000  0.36943500  0.50293700  1
  Pd  Pd37  1  0.75000000  0.95883200  0.46372900  1
  Pd  Pd38  1  0.25000000  0.49967700  0.45011500  1
  Pd  Pd39  1  0.75000000  0.12859100  0.41655200  1
  Pd  Pd40  1  0.25000000  0.86096900  0.56018100  1
  Pd  Pd41  1  0.75000000  0.16729900  0.50648500  1
  Pd  Pd42  1  0.25000000  0.46263900  0.57470500  1
  Pd  Pd43  1  0.75000000  0.26562900  0.59196100  1
  Pd  Pd44  1  0.25000000  0.06943500  0.60293700  1
  Pd  Pd45  1  0.75000000  0.65883200  0.56372900  1
  Pd  Pd46  1  0.25000000  0.19967700  0.55011500  1
  Pd  Pd47  1  0.75000000  0.82859100  0.51655200  1
  Pd  Pd48  1  0.25000000  0.56096900  0.66018100  1
  Pd  Pd49  1  0.75000000  0.86729900  0.60648500  1
  Pd  Pd50  1  0.25000000  0.16263900  0.67470500  1
  Pd  Pd51  1  0.75000000  0.96562900  0.69196100  1
  Pd  Pd52  1  0.25000000  0.76943500  0.70293700  1
  Pd  Pd53  1  0.75000000  0.35883200  0.66372900  1
  Pd  Pd54  1  0.25000000  0.89967700  0.65011500  1
  Pd  Pd55  1  0.75000000  0.52859100  0.61655200  1
  Pd  Pd56  1  0.25000000  0.26096900  0.76018100  1
  Pd  Pd57  1  0.75000000  0.56729900  0.70648500  1
  Pd  Pd58  1  0.25000000  0.86263900  0.77470500  1
  Pd  Pd59  1  0.75000000  0.66562900  0.79196100  1
  Pd  Pd60  1  0.25000000  0.46943500  0.80293700  1
  Pd  Pd61  1  0.75000000  0.05883200  0.76372900  1
  Pd  Pd62  1  0.25000000  0.59967700  0.75011500  1
  Pd  Pd63  1  0.75000000  0.22859100  0.71655200  1
