# generated using pymatgen
data_Mg7Hg16
_symmetry_space_group_name_H-M   'P 1'
_cell_length_a   3.51707100
_cell_length_b   11.62911591
_cell_length_c   47.45470900
_cell_angle_alpha   87.71781654
_cell_angle_beta   90.00000000
_cell_angle_gamma   90.00000000
_symmetry_Int_Tables_number   1
_chemical_formula_structural   Mg7Hg16
_chemical_formula_sum   'Mg14 Hg32'
_cell_volume   1939.37834396
_cell_formula_units_Z   2
loop_
 _symmetry_equiv_pos_site_id
 _symmetry_equiv_pos_as_xyz
  1  'x, y, z'
loop_
 _atom_site_type_symbol
 _atom_site_label
 _atom_site_symmetry_multiplicity
 _atom_site_fract_x
 _atom_site_fract_y
 _atom_site_fract_z
 _atom_site_occupancy
  Mg  Mg0  1  1.00000000  0.07306900  0.29728000  1
  Mg  Mg1  1  0.50000000  0.59395500  0.29795800  1
  Mg  Mg2  1  0.50000000  0.64449700  0.36870800  1
  Mg  Mg3  1  0.00000000  0.16538300  0.36938700  1
  Mg  Mg4  1  0.00000000  0.21592600  0.44013700  1
  Mg  Mg5  1  0.50000000  0.73681200  0.44081500  1
  Mg  Mg6  1  0.50000000  0.78735500  0.51156500  1
  Mg  Mg7  1  0.00000000  0.30824000  0.51224400  1
  Mg  Mg8  1  0.00000000  0.35878300  0.58299400  1
  Mg  Mg9  1  0.50000000  0.87966900  0.58367300  1
  Mg  Mg10  1  0.50000000  0.93021200  0.65442300  1
  Mg  Mg11  1  0.00000000  0.45109700  0.65510100  1
  Mg  Mg12  1  1.00000000  0.50164000  0.72585100  1
  Mg  Mg13  1  0.50000000  0.02252600  0.72653000  1
  Hg  Hg14  1  1.00000000  0.40793900  0.27311300  1
  Hg  Hg15  1  0.50000000  0.25908400  0.32212500  1
  Hg  Hg16  1  1.00000000  0.46730600  0.34213500  1
  Hg  Hg17  1  0.50000000  0.19971800  0.25310300  1
  Hg  Hg18  1  0.50000000  0.97936800  0.34454200  1
  Hg  Hg19  1  1.00000000  0.68765600  0.25069600  1
  Hg  Hg20  1  0.50000000  0.89587700  0.27070700  1
  Hg  Hg21  1  1.00000000  0.77114600  0.32453100  1
  Hg  Hg22  1  1.00000000  0.55079600  0.41597100  1
  Hg  Hg23  1  0.50000000  0.40194100  0.46498200  1
  Hg  Hg24  1  0.00000000  0.61016300  0.48499300  1
  Hg  Hg25  1  0.50000000  0.34257500  0.39596000  1
  Hg  Hg26  1  0.50000000  0.12222500  0.48739900  1
  Hg  Hg27  1  1.00000000  0.83051300  0.39355300  1
  Hg  Hg28  1  0.50000000  0.03873400  0.41356400  1
  Hg  Hg29  1  0.00000000  0.91400400  0.46738800  1
  Hg  Hg30  1  1.00000000  0.69365300  0.55882800  1
  Hg  Hg31  1  0.50000000  0.54479900  0.60783900  1
  Hg  Hg32  1  0.00000000  0.75302000  0.62785000  1
  Hg  Hg33  1  0.50000000  0.48543200  0.53881700  1
  Hg  Hg34  1  0.50000000  0.26508200  0.63025600  1
  Hg  Hg35  1  1.00000000  0.97337000  0.53641000  1
  Hg  Hg36  1  0.50000000  0.18159100  0.55642100  1
  Hg  Hg37  1  0.00000000  0.05686100  0.61024600  1
  Hg  Hg38  1  1.00000000  0.83651100  0.70168500  1
  Hg  Hg39  1  0.50000000  0.68765600  0.75069600  1
  Hg  Hg40  1  1.00000000  0.89587700  0.77070700  1
  Hg  Hg41  1  0.50000000  0.62828900  0.68167400  1
  Hg  Hg42  1  0.50000000  0.40793900  0.77311300  1
  Hg  Hg43  1  1.00000000  0.11622700  0.67926700  1
  Hg  Hg44  1  0.50000000  0.32444800  0.69927800  1
  Hg  Hg45  1  1.00000000  0.19971800  0.75310300  1
