# generated using pymatgen
data_Ce7Mg16
_symmetry_space_group_name_H-M   'P 1'
_cell_length_a   5.20463200
_cell_length_b   9.04803456
_cell_length_c   40.84261700
_cell_angle_alpha   92.44626560
_cell_angle_beta   90.00000000
_cell_angle_gamma   90.00000000
_symmetry_Int_Tables_number   1
_chemical_formula_structural   Ce7Mg16
_chemical_formula_sum   'Ce14 Mg32'
_cell_volume   1921.59510184
_cell_formula_units_Z   2
loop_
 _symmetry_equiv_pos_site_id
 _symmetry_equiv_pos_as_xyz
  1  'x, y, z'
loop_
 _atom_site_type_symbol
 _atom_site_label
 _atom_site_symmetry_multiplicity
 _atom_site_fract_x
 _atom_site_fract_y
 _atom_site_fract_z
 _atom_site_occupancy
  Ce  Ce0  1  0.25000000  0.64340400  0.72093100  1
  Ce  Ce1  1  0.75000000  0.79249400  0.71496700  1
  Ce  Ce2  1  0.25000000  0.56648000  0.64400700  1
  Ce  Ce3  1  0.75000000  0.71557100  0.63804400  1
  Ce  Ce4  1  0.25000000  0.48955700  0.56708400  1
  Ce  Ce5  1  0.75000000  0.63864800  0.56112100  1
  Ce  Ce6  1  0.25000000  0.41263400  0.49016100  1
  Ce  Ce7  1  0.75000000  0.56172500  0.48419800  1
  Ce  Ce8  1  0.25000000  0.33571100  0.41323800  1
  Ce  Ce9  1  0.75000000  0.48480200  0.40727500  1
  Ce  Ce10  1  0.25000000  0.25878800  0.33631500  1
  Ce  Ce11  1  0.75000000  0.40787900  0.33035200  1
  Ce  Ce12  1  0.25000000  0.18186500  0.25939200  1
  Ce  Ce13  1  0.75000000  0.33095500  0.25342800  1
  Mg  Mg14  1  0.25000000  0.99793500  0.74674900  1
  Mg  Mg15  1  0.25000000  0.33753900  0.77316500  1
  Mg  Mg16  1  0.75000000  0.17528100  0.73965500  1
  Mg  Mg17  1  0.75000000  0.51488600  0.76607100  1
  Mg  Mg18  1  0.25000000  0.92101200  0.66982600  1
  Mg  Mg19  1  0.25000000  0.26061600  0.69624200  1
  Mg  Mg20  1  0.75000000  0.09835800  0.66273200  1
  Mg  Mg21  1  0.75000000  0.43796200  0.68914800  1
  Mg  Mg22  1  0.25000000  0.84408900  0.59290300  1
  Mg  Mg23  1  0.25000000  0.18369300  0.61931900  1
  Mg  Mg24  1  0.75000000  0.02143500  0.58580900  1
  Mg  Mg25  1  0.75000000  0.36103900  0.61222500  1
  Mg  Mg26  1  0.25000000  0.76716600  0.51598000  1
  Mg  Mg27  1  0.25000000  0.10677000  0.54239600  1
  Mg  Mg28  1  0.75000000  0.94451200  0.50888600  1
  Mg  Mg29  1  0.75000000  0.28411600  0.53530200  1
  Mg  Mg30  1  0.25000000  0.69024300  0.43905700  1
  Mg  Mg31  1  0.25000000  0.02984700  0.46547300  1
  Mg  Mg32  1  0.75000000  0.86758900  0.43196300  1
  Mg  Mg33  1  0.75000000  0.20719300  0.45837900  1
  Mg  Mg34  1  0.25000000  0.61332000  0.36213400  1
  Mg  Mg35  1  0.25000000  0.95292400  0.38855000  1
  Mg  Mg36  1  0.75000000  0.79066600  0.35504000  1
  Mg  Mg37  1  0.75000000  0.13027000  0.38145600  1
  Mg  Mg38  1  0.25000000  0.53639600  0.28521100  1
  Mg  Mg39  1  0.25000000  0.87600100  0.31162700  1
  Mg  Mg40  1  0.75000000  0.71374300  0.27811700  1
  Mg  Mg41  1  0.75000000  0.05334700  0.30453300  1
  Mg  Mg42  1  0.25000000  0.45947300  0.20828800  1
  Mg  Mg43  1  0.25000000  0.79907800  0.23470400  1
  Mg  Mg44  1  0.75000000  0.63682000  0.20119400  1
  Mg  Mg45  1  0.75000000  0.97642400  0.22761000  1
