# generated using pymatgen
data_Mg59Si35
_symmetry_space_group_name_H-M   'P 1'
_cell_length_a   12.34156200
_cell_length_b   12.41651900
_cell_length_c   43.01208400
_cell_angle_alpha   90.00000000
_cell_angle_beta   90.00000000
_cell_angle_gamma   90.00000000
_symmetry_Int_Tables_number   1
_chemical_formula_structural   Mg59Si35
_chemical_formula_sum   'Mg118 Si70'
_cell_volume   6591.13902266
_cell_formula_units_Z   2
loop_
 _symmetry_equiv_pos_site_id
 _symmetry_equiv_pos_as_xyz
  1  'x, y, z'
loop_
 _atom_site_type_symbol
 _atom_site_label
 _atom_site_symmetry_multiplicity
 _atom_site_fract_x
 _atom_site_fract_y
 _atom_site_fract_z
 _atom_site_occupancy
  Mg  Mg0  1  0.91704200  0.46081500  0.28161600  1
  Mg  Mg1  1  0.41704200  0.12128200  0.23909400  1
  Mg  Mg2  1  0.91704200  0.20568300  0.28471600  1
  Mg  Mg3  1  0.41704200  0.86615000  0.24219400  1
  Mg  Mg4  1  0.08295800  0.86615000  0.24219400  1
  Mg  Mg5  1  0.58295800  0.20568300  0.28471600  1
  Mg  Mg6  1  0.08295800  0.12128200  0.23909400  1
  Mg  Mg7  1  0.58295800  0.46081500  0.28161600  1
  Mg  Mg8  1  0.25000000  0.49047900  0.27870300  1
  Mg  Mg9  1  0.75000000  0.83648600  0.24510600  1
  Mg  Mg10  1  0.91704200  0.96081500  0.36494900  1
  Mg  Mg11  1  0.41704200  0.62128200  0.32242700  1
  Mg  Mg12  1  0.41704200  0.00301600  0.30442700  1
  Mg  Mg13  1  0.91704200  0.82394900  0.30271600  1
  Mg  Mg14  1  0.91704200  0.70568300  0.36804900  1
  Mg  Mg15  1  0.41704200  0.36615000  0.32552700  1
  Mg  Mg16  1  0.08295800  0.36615000  0.32552700  1
  Mg  Mg17  1  0.58295800  0.70568300  0.36804900  1
  Mg  Mg18  1  0.58295800  0.82394900  0.30271600  1
  Mg  Mg19  1  0.08295800  0.00301600  0.30442700  1
  Mg  Mg20  1  0.08295800  0.62128200  0.32242700  1
  Mg  Mg21  1  0.58295800  0.96081500  0.36494900  1
  Mg  Mg22  1  0.25000000  0.99047900  0.36203700  1
  Mg  Mg23  1  0.75000000  0.62737600  0.31355500  1
  Mg  Mg24  1  0.75000000  0.02658500  0.31038600  1
  Mg  Mg25  1  0.25000000  0.80038000  0.29675600  1
  Mg  Mg26  1  0.25000000  0.19958900  0.29358800  1
  Mg  Mg27  1  0.75000000  0.33648600  0.32844000  1
  Mg  Mg28  1  0.91704200  0.46081500  0.44828300  1
  Mg  Mg29  1  0.41704200  0.12128200  0.40576000  1
  Mg  Mg30  1  0.41704200  0.50301600  0.38776000  1
  Mg  Mg31  1  0.91704200  0.32394900  0.38604900  1
  Mg  Mg32  1  0.91704200  0.20568300  0.45138200  1
  Mg  Mg33  1  0.41704200  0.86615000  0.40886000  1
  Mg  Mg34  1  0.08295800  0.86615000  0.40886000  1
  Mg  Mg35  1  0.58295800  0.20568300  0.45138200  1
  Mg  Mg36  1  0.58295800  0.32394900  0.38604900  1
  Mg  Mg37  1  0.08295800  0.50301600  0.38776000  1
  Mg  Mg38  1  0.08295800  0.12128200  0.40576000  1
  Mg  Mg39  1  0.58295800  0.46081500  0.44828300  1
  Mg  Mg40  1  0.25000000  0.49047900  0.44537000  1
  Mg  Mg41  1  0.75000000  0.12737600  0.39688800  1
  Mg  Mg42  1  0.75000000  0.52658500  0.39372000  1
  Mg  Mg43  1  0.25000000  0.30038000  0.38009000  1
  Mg  Mg44  1  0.25000000  0.69958900  0.37692100  1
  Mg  Mg45  1  0.75000000  0.83648600  0.41177300  1
  Mg  Mg46  1  0.91704200  0.96081500  0.53161600  1
  Mg  Mg47  1  0.41704200  0.62128200  0.48909400  1
  Mg  Mg48  1  0.41704200  0.00301600  0.47109400  1
  Mg  Mg49  1  0.91704200  0.82394900  0.46938300  1
  Mg  Mg50  1  0.91704200  0.70568300  0.53471600  1
  Mg  Mg51  1  0.41704200  0.36615000  0.49219400  1
  Mg  Mg52  1  0.08295800  0.36615000  0.49219400  1
  Mg  Mg53  1  0.58295800  0.70568300  0.53471600  1
  Mg  Mg54  1  0.58295800  0.82394900  0.46938300  1
  Mg  Mg55  1  0.08295800  0.00301600  0.47109400  1
  Mg  Mg56  1  0.08295800  0.62128200  0.48909400  1
  Mg  Mg57  1  0.58295800  0.96081500  0.53161600  1
  Mg  Mg58  1  0.25000000  0.99047900  0.52870300  1
  Mg  Mg59  1  0.75000000  0.62737600  0.48022200  1
  Mg  Mg60  1  0.75000000  0.02658500  0.47705300  1
  Mg  Mg61  1  0.25000000  0.80038000  0.46342300  1
  Mg  Mg62  1  0.25000000  0.19958900  0.46025500  1
  Mg  Mg63  1  0.75000000  0.33648600  0.49510600  1
  Mg  Mg64  1  0.91704200  0.46081500  0.61494900  1
  Mg  Mg65  1  0.41704200  0.12128200  0.57242700  1
  Mg  Mg66  1  0.41704200  0.50301600  0.55442700  1
  Mg  Mg67  1  0.91704200  0.32394900  0.55271600  1
  Mg  Mg68  1  0.91704200  0.20568300  0.61804900  1
  Mg  Mg69  1  0.41704200  0.86615000  0.57552700  1
  Mg  Mg70  1  0.08295800  0.86615000  0.57552700  1
  Mg  Mg71  1  0.58295800  0.20568300  0.61804900  1
  Mg  Mg72  1  0.58295800  0.32394900  0.55271600  1
  Mg  Mg73  1  0.08295800  0.50301600  0.55442700  1
  Mg  Mg74  1  0.08295800  0.12128200  0.57242700  1
  Mg  Mg75  1  0.58295800  0.46081500  0.61494900  1
  Mg  Mg76  1  0.25000000  0.49047900  0.61203700  1
  Mg  Mg77  1  0.75000000  0.12737600  0.56355500  1
  Mg  Mg78  1  0.75000000  0.52658500  0.56038600  1
  Mg  Mg79  1  0.25000000  0.30038000  0.54675600  1
  Mg  Mg80  1  0.25000000  0.69958900  0.54358800  1
  Mg  Mg81  1  0.75000000  0.83648600  0.57844000  1
  Mg  Mg82  1  0.91704200  0.96081500  0.69828300  1
  Mg  Mg83  1  0.41704200  0.62128200  0.65576000  1
  Mg  Mg84  1  0.41704200  0.00301600  0.63776000  1
  Mg  Mg85  1  0.91704200  0.82394900  0.63604900  1
  Mg  Mg86  1  0.91704200  0.70568300  0.70138200  1
  Mg  Mg87  1  0.41704200  0.36615000  0.65886000  1
  Mg  Mg88  1  0.08295800  0.36615000  0.65886000  1
  Mg  Mg89  1  0.58295800  0.70568300  0.70138200  1
  Mg  Mg90  1  0.58295800  0.82394900  0.63604900  1
  Mg  Mg91  1  0.08295800  0.00301600  0.63776000  1
  Mg  Mg92  1  0.08295800  0.62128200  0.65576000  1
  Mg  Mg93  1  0.58295800  0.96081500  0.69828300  1
  Mg  Mg94  1  0.25000000  0.99047900  0.69537000  1
  Mg  Mg95  1  0.75000000  0.62737600  0.64688800  1
  Mg  Mg96  1  0.75000000  0.02658500  0.64372000  1
  Mg  Mg97  1  0.25000000  0.80038000  0.63009000  1
  Mg  Mg98  1  0.25000000  0.19958900  0.62692100  1
  Mg  Mg99  1  0.75000000  0.33648600  0.66177300  1
  Mg  Mg100  1  0.91704200  0.46081500  0.78161600  1
  Mg  Mg101  1  0.41704200  0.12128200  0.73909400  1
  Mg  Mg102  1  0.41704200  0.50301600  0.72109400  1
  Mg  Mg103  1  0.91704200  0.32394900  0.71938300  1
  Mg  Mg104  1  0.91704200  0.20568300  0.78471600  1
  Mg  Mg105  1  0.41704200  0.86615000  0.74219400  1
  Mg  Mg106  1  0.08295800  0.86615000  0.74219400  1
  Mg  Mg107  1  0.58295800  0.20568300  0.78471600  1
  Mg  Mg108  1  0.58295800  0.32394900  0.71938300  1
  Mg  Mg109  1  0.08295800  0.50301600  0.72109400  1
  Mg  Mg110  1  0.08295800  0.12128200  0.73909400  1
  Mg  Mg111  1  0.58295800  0.46081500  0.78161600  1
  Mg  Mg112  1  0.25000000  0.49047900  0.77870300  1
  Mg  Mg113  1  0.75000000  0.12737600  0.73022200  1
  Mg  Mg114  1  0.75000000  0.52658500  0.72705300  1
  Mg  Mg115  1  0.25000000  0.30038000  0.71342300  1
  Mg  Mg116  1  0.25000000  0.69958900  0.71025500  1
  Mg  Mg117  1  0.75000000  0.83648600  0.74510600  1
  Si  Si118  1  0.10025900  0.66348300  0.26190500  1
  Si  Si119  1  0.60025900  0.66348300  0.26190500  1
  Si  Si120  1  0.89974100  0.66348300  0.26190500  1
  Si  Si121  1  0.39974100  0.66348300  0.26190500  1
  Si  Si122  1  0.25000000  0.99681600  0.26190500  1
  Si  Si123  1  0.75000000  0.33014900  0.26190500  1
  Si  Si124  1  0.41253500  0.33014900  0.26190500  1
  Si  Si125  1  0.91253500  0.99681600  0.26190500  1
  Si  Si126  1  0.58746500  0.99681600  0.26190500  1
  Si  Si127  1  0.08746500  0.33014900  0.26190500  1
  Si  Si128  1  0.10025900  0.16348300  0.34523800  1
  Si  Si129  1  0.60025900  0.16348300  0.34523800  1
  Si  Si130  1  0.89974100  0.16348300  0.34523800  1
  Si  Si131  1  0.39974100  0.16348300  0.34523800  1
  Si  Si132  1  0.25000000  0.49681600  0.34523800  1
  Si  Si133  1  0.75000000  0.83014900  0.34523800  1
  Si  Si134  1  0.41253500  0.83014900  0.34523800  1
  Si  Si135  1  0.91253500  0.49681600  0.34523800  1
  Si  Si136  1  0.58746500  0.49681600  0.34523800  1
  Si  Si137  1  0.08746500  0.83014900  0.34523800  1
  Si  Si138  1  0.10025900  0.66348300  0.42857100  1
  Si  Si139  1  0.60025900  0.66348300  0.42857100  1
  Si  Si140  1  0.89974100  0.66348300  0.42857100  1
  Si  Si141  1  0.39974100  0.66348300  0.42857100  1
  Si  Si142  1  0.25000000  0.99681600  0.42857100  1
  Si  Si143  1  0.75000000  0.33014900  0.42857100  1
  Si  Si144  1  0.41253500  0.33014900  0.42857100  1
  Si  Si145  1  0.91253500  0.99681600  0.42857100  1
  Si  Si146  1  0.58746500  0.99681600  0.42857100  1
  Si  Si147  1  0.08746500  0.33014900  0.42857100  1
  Si  Si148  1  0.10025900  0.16348300  0.51190500  1
  Si  Si149  1  0.60025900  0.16348300  0.51190500  1
  Si  Si150  1  0.89974100  0.16348300  0.51190500  1
  Si  Si151  1  0.39974100  0.16348300  0.51190500  1
  Si  Si152  1  0.25000000  0.49681600  0.51190500  1
  Si  Si153  1  0.75000000  0.83014900  0.51190500  1
  Si  Si154  1  0.41253500  0.83014900  0.51190500  1
  Si  Si155  1  0.91253500  0.49681600  0.51190500  1
  Si  Si156  1  0.58746500  0.49681600  0.51190500  1
  Si  Si157  1  0.08746500  0.83014900  0.51190500  1
  Si  Si158  1  0.10025900  0.66348300  0.59523800  1
  Si  Si159  1  0.60025900  0.66348300  0.59523800  1
  Si  Si160  1  0.89974100  0.66348300  0.59523800  1
  Si  Si161  1  0.39974100  0.66348300  0.59523800  1
  Si  Si162  1  0.25000000  0.99681600  0.59523800  1
  Si  Si163  1  0.75000000  0.33014900  0.59523800  1
  Si  Si164  1  0.41253500  0.33014900  0.59523800  1
  Si  Si165  1  0.91253500  0.99681600  0.59523800  1
  Si  Si166  1  0.58746500  0.99681600  0.59523800  1
  Si  Si167  1  0.08746500  0.33014900  0.59523800  1
  Si  Si168  1  0.10025900  0.16348300  0.67857100  1
  Si  Si169  1  0.60025900  0.16348300  0.67857100  1
  Si  Si170  1  0.89974100  0.16348300  0.67857100  1
  Si  Si171  1  0.39974100  0.16348300  0.67857100  1
  Si  Si172  1  0.25000000  0.49681600  0.67857100  1
  Si  Si173  1  0.75000000  0.83014900  0.67857100  1
  Si  Si174  1  0.41253500  0.83014900  0.67857100  1
  Si  Si175  1  0.91253500  0.49681600  0.67857100  1
  Si  Si176  1  0.58746500  0.49681600  0.67857100  1
  Si  Si177  1  0.08746500  0.83014900  0.67857100  1
  Si  Si178  1  0.10025900  0.66348300  0.76190500  1
  Si  Si179  1  0.60025900  0.66348300  0.76190500  1
  Si  Si180  1  0.89974100  0.66348300  0.76190500  1
  Si  Si181  1  0.39974100  0.66348300  0.76190500  1
  Si  Si182  1  0.25000000  0.99681600  0.76190500  1
  Si  Si183  1  0.75000000  0.33014900  0.76190500  1
  Si  Si184  1  0.41253500  0.33014900  0.76190500  1
  Si  Si185  1  0.91253500  0.99681600  0.76190500  1
  Si  Si186  1  0.58746500  0.99681600  0.76190500  1
  Si  Si187  1  0.08746500  0.33014900  0.76190500  1
