# generated using pymatgen
data_Mg2Hg
_symmetry_space_group_name_H-M   'P 1'
_cell_length_a   6.40514000
_cell_length_b   8.61312000
_cell_length_c   47.54964600
_cell_angle_alpha   90.00000000
_cell_angle_beta   90.00000000
_cell_angle_gamma   90.00000000
_symmetry_Int_Tables_number   1
_chemical_formula_structural   Mg2Hg
_chemical_formula_sum   'Mg48 Hg24'
_cell_volume   2623.23025566
_cell_formula_units_Z   24
loop_
 _symmetry_equiv_pos_site_id
 _symmetry_equiv_pos_as_xyz
  1  'x, y, z'
loop_
 _atom_site_type_symbol
 _atom_site_label
 _atom_site_symmetry_multiplicity
 _atom_site_fract_x
 _atom_site_fract_y
 _atom_site_fract_z
 _atom_site_occupancy
  Mg  Mg0  1  0.46739600  0.21145700  0.22500000  1
  Mg  Mg1  1  0.53260400  0.78854300  0.27500000  1
  Mg  Mg2  1  0.96739600  0.28854300  0.22500000  1
  Mg  Mg3  1  0.03260400  0.71145700  0.27500000  1
  Mg  Mg4  1  0.67749800  0.43802000  0.27500000  1
  Mg  Mg5  1  0.32250200  0.56198000  0.22500000  1
  Mg  Mg6  1  0.17749800  0.06198000  0.27500000  1
  Mg  Mg7  1  0.82250200  0.93802000  0.22500000  1
  Mg  Mg8  1  0.46739600  0.21145700  0.32500000  1
  Mg  Mg9  1  0.53260400  0.78854300  0.37500000  1
  Mg  Mg10  1  0.96739600  0.28854300  0.32500000  1
  Mg  Mg11  1  0.03260400  0.71145700  0.37500000  1
  Mg  Mg12  1  0.67749800  0.43802000  0.37500000  1
  Mg  Mg13  1  0.32250200  0.56198000  0.32500000  1
  Mg  Mg14  1  0.17749800  0.06198000  0.37500000  1
  Mg  Mg15  1  0.82250200  0.93802000  0.32500000  1
  Mg  Mg16  1  0.46739600  0.21145700  0.42500000  1
  Mg  Mg17  1  0.53260400  0.78854300  0.47500000  1
  Mg  Mg18  1  0.96739600  0.28854300  0.42500000  1
  Mg  Mg19  1  0.03260400  0.71145700  0.47500000  1
  Mg  Mg20  1  0.67749800  0.43802000  0.47500000  1
  Mg  Mg21  1  0.32250200  0.56198000  0.42500000  1
  Mg  Mg22  1  0.17749800  0.06198000  0.47500000  1
  Mg  Mg23  1  0.82250200  0.93802000  0.42500000  1
  Mg  Mg24  1  0.46739600  0.21145700  0.52500000  1
  Mg  Mg25  1  0.53260400  0.78854300  0.57500000  1
  Mg  Mg26  1  0.96739600  0.28854300  0.52500000  1
  Mg  Mg27  1  0.03260400  0.71145700  0.57500000  1
  Mg  Mg28  1  0.67749800  0.43802000  0.57500000  1
  Mg  Mg29  1  0.32250200  0.56198000  0.52500000  1
  Mg  Mg30  1  0.17749800  0.06198000  0.57500000  1
  Mg  Mg31  1  0.82250200  0.93802000  0.52500000  1
  Mg  Mg32  1  0.46739600  0.21145700  0.62500000  1
  Mg  Mg33  1  0.53260400  0.78854300  0.67500000  1
  Mg  Mg34  1  0.96739600  0.28854300  0.62500000  1
  Mg  Mg35  1  0.03260400  0.71145700  0.67500000  1
  Mg  Mg36  1  0.67749800  0.43802000  0.67500000  1
  Mg  Mg37  1  0.32250200  0.56198000  0.62500000  1
  Mg  Mg38  1  0.17749800  0.06198000  0.67500000  1
  Mg  Mg39  1  0.82250200  0.93802000  0.62500000  1
  Mg  Mg40  1  0.46739600  0.21145700  0.72500000  1
  Mg  Mg41  1  0.53260400  0.78854300  0.77500000  1
  Mg  Mg42  1  0.96739600  0.28854300  0.72500000  1
  Mg  Mg43  1  0.03260400  0.71145700  0.77500000  1
  Mg  Mg44  1  0.67749800  0.43802000  0.77500000  1
  Mg  Mg45  1  0.32250200  0.56198000  0.72500000  1
  Mg  Mg46  1  0.17749800  0.06198000  0.77500000  1
  Mg  Mg47  1  0.82250200  0.93802000  0.72500000  1
  Hg  Hg48  1  0.27973800  0.89153800  0.22500000  1
  Hg  Hg49  1  0.72026200  0.10846200  0.27500000  1
  Hg  Hg50  1  0.77973800  0.60846200  0.22500000  1
  Hg  Hg51  1  0.22026200  0.39153800  0.27500000  1
  Hg  Hg52  1  0.27973800  0.89153800  0.32500000  1
  Hg  Hg53  1  0.72026200  0.10846200  0.37500000  1
  Hg  Hg54  1  0.77973800  0.60846200  0.32500000  1
  Hg  Hg55  1  0.22026200  0.39153800  0.37500000  1
  Hg  Hg56  1  0.27973800  0.89153800  0.42500000  1
  Hg  Hg57  1  0.72026200  0.10846200  0.47500000  1
  Hg  Hg58  1  0.77973800  0.60846200  0.42500000  1
  Hg  Hg59  1  0.22026200  0.39153800  0.47500000  1
  Hg  Hg60  1  0.27973800  0.89153800  0.52500000  1
  Hg  Hg61  1  0.72026200  0.10846200  0.57500000  1
  Hg  Hg62  1  0.77973800  0.60846200  0.52500000  1
  Hg  Hg63  1  0.22026200  0.39153800  0.57500000  1
  Hg  Hg64  1  0.27973800  0.89153800  0.62500000  1
  Hg  Hg65  1  0.72026200  0.10846200  0.67500000  1
  Hg  Hg66  1  0.77973800  0.60846200  0.62500000  1
  Hg  Hg67  1  0.22026200  0.39153800  0.67500000  1
  Hg  Hg68  1  0.27973800  0.89153800  0.72500000  1
  Hg  Hg69  1  0.72026200  0.10846200  0.77500000  1
  Hg  Hg70  1  0.77973800  0.60846200  0.72500000  1
  Hg  Hg71  1  0.22026200  0.39153800  0.77500000  1
