# generated using pymatgen
data_Mg14Cu25
_symmetry_space_group_name_H-M   'P 1'
_cell_length_a   4.97853684
_cell_length_b   4.97853667
_cell_length_c   44.80683400
_cell_angle_alpha   86.81526574
_cell_angle_beta   86.81526585
_cell_angle_gamma   60.00000166
_symmetry_Int_Tables_number   1
_chemical_formula_structural   Mg14Cu25
_chemical_formula_sum   'Mg14 Cu25'
_cell_volume   959.80472128
_cell_formula_units_Z   1
loop_
 _symmetry_equiv_pos_site_id
 _symmetry_equiv_pos_as_xyz
  1  'x, y, z'
loop_
 _atom_site_type_symbol
 _atom_site_label
 _atom_site_symmetry_multiplicity
 _atom_site_fract_x
 _atom_site_fract_y
 _atom_site_fract_z
 _atom_site_occupancy
  Mg  Mg0  1  0.32954500  0.32954500  0.76136400  1
  Mg  Mg1  1  0.67045500  0.67045500  0.73863600  1
  Mg  Mg2  1  0.69318200  0.69318200  0.67045500  1
  Mg  Mg3  1  0.03409100  0.03409100  0.64772700  1
  Mg  Mg4  1  0.05681800  0.05681800  0.57954500  1
  Mg  Mg5  1  0.39772700  0.39772700  0.55681800  1
  Mg  Mg6  1  0.42045500  0.42045500  0.48863600  1
  Mg  Mg7  1  0.76136400  0.76136400  0.46590900  1
  Mg  Mg8  1  0.78409100  0.78409100  0.39772700  1
  Mg  Mg9  1  0.12500000  0.12500000  0.37500000  1
  Mg  Mg10  1  0.14772700  0.14772700  0.30681800  1
  Mg  Mg11  1  0.48863600  0.48863600  0.28409100  1
  Mg  Mg12  1  0.51136400  0.51136400  0.21590900  1
  Mg  Mg13  1  0.85227300  0.85227300  0.19318200  1
  Cu  Cu14  1  1.00000000  1.00000000  0.75000000  1
  Cu  Cu15  1  0.18181800  0.68181800  0.70454500  1
  Cu  Cu16  1  0.36363600  0.36363600  0.65909100  1
  Cu  Cu17  1  0.18181800  0.18181800  0.70454500  1
  Cu  Cu18  1  0.68181800  0.18181800  0.70454500  1
  Cu  Cu19  1  0.54545500  0.04545500  0.61363600  1
  Cu  Cu20  1  0.72727300  0.72727300  0.56818200  1
  Cu  Cu21  1  0.54545500  0.54545500  0.61363600  1
  Cu  Cu22  1  0.04545500  0.54545500  0.61363600  1
  Cu  Cu23  1  0.90909100  0.40909100  0.52272700  1
  Cu  Cu24  1  0.09090900  0.09090900  0.47727300  1
  Cu  Cu25  1  0.90909100  0.90909100  0.52272700  1
  Cu  Cu26  1  0.40909100  0.90909100  0.52272700  1
  Cu  Cu27  1  0.27272700  0.77272700  0.43181800  1
  Cu  Cu28  1  0.45454500  0.45454500  0.38636400  1
  Cu  Cu29  1  0.27272700  0.27272700  0.43181800  1
  Cu  Cu30  1  0.77272700  0.27272700  0.43181800  1
  Cu  Cu31  1  0.63636400  0.13636400  0.34090900  1
  Cu  Cu32  1  0.81818200  0.81818200  0.29545500  1
  Cu  Cu33  1  0.63636400  0.63636400  0.34090900  1
  Cu  Cu34  1  0.13636400  0.63636400  0.34090900  1
  Cu  Cu35  1  1.00000000  0.50000000  0.25000000  1
  Cu  Cu36  1  0.18181800  0.18181800  0.20454500  1
  Cu  Cu37  1  1.00000000  0.00000000  0.25000000  1
  Cu  Cu38  1  0.50000000  0.00000000  0.25000000  1
