# generated using pymatgen
data_Mg14Zn25
_symmetry_space_group_name_H-M   'P 1'
_cell_length_a   15.05205963
_cell_length_b   15.58232832
_cell_length_c   44.40935000
_cell_angle_alpha   95.28205411
_cell_angle_beta   87.96000798
_cell_angle_gamma   92.33702888
_symmetry_Int_Tables_number   1
_chemical_formula_structural   Mg14Zn25
_chemical_formula_sum   'Mg126 Zn225'
_cell_volume   10357.87463183
_cell_formula_units_Z   9
loop_
 _symmetry_equiv_pos_site_id
 _symmetry_equiv_pos_as_xyz
  1  'x, y, z'
loop_
 _atom_site_type_symbol
 _atom_site_label
 _atom_site_symmetry_multiplicity
 _atom_site_fract_x
 _atom_site_fract_y
 _atom_site_fract_z
 _atom_site_occupancy
  Mg  Mg0  1  0.80850400  0.52174800  0.26040700  1
  Mg  Mg1  1  0.46679300  0.58789900  0.26828600  1
  Mg  Mg2  1  0.89000800  0.32750900  0.25033600  1
  Mg  Mg3  1  0.23172000  0.26135700  0.24245800  1
  Mg  Mg4  1  0.87618800  0.83620100  0.24871100  1
  Mg  Mg5  1  0.82232500  0.01305500  0.26203300  1
  Mg  Mg6  1  0.50287500  0.77675500  0.30306500  1
  Mg  Mg7  1  0.76915200  0.56338400  0.33004100  1
  Mg  Mg8  1  0.41131800  0.25308700  0.27923100  1
  Mg  Mg9  1  0.68219600  0.85557900  0.28083900  1
  Mg  Mg10  1  0.62668600  0.43083900  0.35131600  1
  Mg  Mg11  1  0.35135800  0.91785700  0.29019700  1
  Mg  Mg12  1  0.44852200  0.44153800  0.31500700  1
  Mg  Mg13  1  0.83449900  0.90276800  0.32081400  1
  Mg  Mg14  1  0.28497500  0.49699000  0.35919500  1
  Mg  Mg15  1  0.70819000  0.23660000  0.34124600  1
  Mg  Mg16  1  0.10537600  0.50526100  0.32242200  1
  Mg  Mg17  1  0.04990200  0.17044800  0.33336700  1
  Mg  Mg18  1  0.69437000  0.74529200  0.33962000  1
  Mg  Mg19  1  0.39015000  0.10544700  0.32572400  1
  Mg  Mg20  1  0.12654500  0.65290000  0.27592900  1
  Mg  Mg21  1  0.06817200  0.31680900  0.28664600  1
  Mg  Mg22  1  0.01381900  0.98159200  0.29858800  1
  Mg  Mg23  1  0.16533700  0.84049100  0.31145600  1
  Mg  Mg24  1  0.74754300  0.19496300  0.27161200  1
  Mg  Mg25  1  0.64050700  0.92214600  0.35294200  1
  Mg  Mg26  1  0.32105700  0.68584600  0.39397400  1
  Mg  Mg27  1  0.58733400  0.47247500  0.42095000  1
  Mg  Mg28  1  0.22950000  0.16217800  0.37014000  1
  Mg  Mg29  1  0.50037800  0.76467000  0.37174800  1
  Mg  Mg30  1  0.44486800  0.33992900  0.44222600  1
  Mg  Mg31  1  0.16954000  0.82694700  0.38110600  1
  Mg  Mg32  1  0.26670400  0.35062900  0.40591600  1
  Mg  Mg33  1  0.65268100  0.81185900  0.41172300  1
  Mg  Mg34  1  0.10315600  0.40608100  0.45010400  1
  Mg  Mg35  1  0.52637200  0.14569100  0.43215500  1
  Mg  Mg36  1  0.92355800  0.41435200  0.41333100  1
  Mg  Mg37  1  0.86808400  0.07953900  0.42427600  1
  Mg  Mg38  1  0.51255200  0.65438300  0.43052900  1
  Mg  Mg39  1  0.20833200  0.01453800  0.41663300  1
  Mg  Mg40  1  0.94472700  0.56199100  0.36683800  1
  Mg  Mg41  1  0.88635400  0.22590000  0.37755500  1
  Mg  Mg42  1  0.83200100  0.89068300  0.38949700  1
  Mg  Mg43  1  0.98351900  0.74958200  0.40236500  1
  Mg  Mg44  1  0.56572400  0.10405400  0.36252100  1
  Mg  Mg45  1  0.45868900  0.83123700  0.44385100  1
  Mg  Mg46  1  0.13923900  0.59493700  0.48488300  1
  Mg  Mg47  1  0.40551600  0.38156600  0.51185900  1
  Mg  Mg48  1  0.04768200  0.07126900  0.46104900  1
  Mg  Mg49  1  0.31855900  0.67376100  0.46265700  1
  Mg  Mg50  1  0.26305000  0.24902000  0.53313500  1
  Mg  Mg51  1  0.98772100  0.73603800  0.47201500  1
  Mg  Mg52  1  0.08488600  0.25972000  0.49682500  1
  Mg  Mg53  1  0.47086300  0.72095000  0.50263200  1
  Mg  Mg54  1  0.92133800  0.31517200  0.54101300  1
  Mg  Mg55  1  0.34455400  0.05478200  0.52306400  1
  Mg  Mg56  1  0.74174000  0.32344200  0.50424000  1
  Mg  Mg57  1  0.68626600  0.98863000  0.51518600  1
  Mg  Mg58  1  0.33073300  0.56347400  0.52143800  1
  Mg  Mg59  1  0.02651300  0.92362900  0.50754200  1
  Mg  Mg60  1  0.76290900  0.47108200  0.45774700  1
  Mg  Mg61  1  0.70453600  0.13499100  0.46846400  1
  Mg  Mg62  1  0.65018300  0.79977400  0.48040600  1
  Mg  Mg63  1  0.80170000  0.65867300  0.49327400  1
  Mg  Mg64  1  0.38390600  0.01314500  0.45343000  1
  Mg  Mg65  1  0.27687000  0.74032800  0.53476000  1
  Mg  Mg66  1  0.95742100  0.50402800  0.57579300  1
  Mg  Mg67  1  0.22369800  0.29065700  0.60276800  1
  Mg  Mg68  1  0.86586400  0.98035900  0.55195800  1
  Mg  Mg69  1  0.13674100  0.58285200  0.55356600  1
  Mg  Mg70  1  0.08123200  0.15811100  0.62404400  1
  Mg  Mg71  1  0.80590300  0.64512900  0.56292400  1
  Mg  Mg72  1  0.90306800  0.16881100  0.58773400  1
  Mg  Mg73  1  0.28904400  0.63004100  0.59354100  1
  Mg  Mg74  1  0.73952000  0.22426300  0.63192200  1
  Mg  Mg75  1  0.16273600  0.96387200  0.61397300  1
  Mg  Mg76  1  0.55992200  0.23253300  0.59515000  1
  Mg  Mg77  1  0.50444700  0.89772100  0.60609500  1
  Mg  Mg78  1  0.14891500  0.47256500  0.61234700  1
  Mg  Mg79  1  0.84469500  0.83272000  0.59845100  1
  Mg  Mg80  1  0.58109000  0.38017300  0.54865700  1
  Mg  Mg81  1  0.52271800  0.04408200  0.55937400  1
  Mg  Mg82  1  0.46836500  0.70886500  0.57131500  1
  Mg  Mg83  1  0.61988200  0.56776400  0.58418300  1
  Mg  Mg84  1  0.20208800  0.92223600  0.54433900  1
  Mg  Mg85  1  0.09505200  0.64941900  0.62567000  1
  Mg  Mg86  1  0.77560200  0.41311900  0.66670200  1
  Mg  Mg87  1  0.04187900  0.19974800  0.69367800  1
  Mg  Mg88  1  0.68404500  0.88945000  0.64286700  1
  Mg  Mg89  1  0.95492300  0.49194300  0.64447500  1
  Mg  Mg90  1  0.89941400  0.06720200  0.71495300  1
  Mg  Mg91  1  0.62408500  0.55422000  0.65383300  1
  Mg  Mg92  1  0.72125000  0.07790200  0.67864300  1
  Mg  Mg93  1  0.10722600  0.53913100  0.68445000  1
  Mg  Mg94  1  0.55770200  0.13335400  0.72283100  1
  Mg  Mg95  1  0.98091700  0.87296300  0.70488200  1
  Mg  Mg96  1  0.37810400  0.14162400  0.68605900  1
  Mg  Mg97  1  0.32262900  0.80681200  0.69700400  1
  Mg  Mg98  1  0.96709700  0.38165600  0.70325600  1
  Mg  Mg99  1  0.66287700  0.74181100  0.68936000  1
  Mg  Mg100  1  0.39927200  0.28926400  0.63956600  1
  Mg  Mg101  1  0.34090000  0.95317300  0.65028300  1
  Mg  Mg102  1  0.28654700  0.61795600  0.66222400  1
  Mg  Mg103  1  0.43806400  0.47685400  0.67509200  1
  Mg  Mg104  1  0.02027000  0.83132700  0.63524800  1
  Mg  Mg105  1  0.91323400  0.55851000  0.71657900  1
  Mg  Mg106  1  0.59378400  0.32221000  0.75761100  1
  Mg  Mg107  1  0.86006100  0.10883800  0.78458700  1
  Mg  Mg108  1  0.50222700  0.79854100  0.73377600  1
  Mg  Mg109  1  0.77310500  0.40103400  0.73538400  1
  Mg  Mg110  1  0.71759500  0.97629300  0.80586200  1
  Mg  Mg111  1  0.44226700  0.46331100  0.74474200  1
  Mg  Mg112  1  0.53943100  0.98699200  0.76955200  1
  Mg  Mg113  1  0.92540800  0.44822200  0.77536000  1
  Mg  Mg114  1  0.37588400  0.04244400  0.81374000  1
  Mg  Mg115  1  0.79909900  0.78205400  0.79579100  1
  Mg  Mg116  1  0.19628600  0.05071500  0.77696800  1
  Mg  Mg117  1  0.14081100  0.71590300  0.78791300  1
  Mg  Mg118  1  0.78527900  0.29074700  0.79416500  1
  Mg  Mg119  1  0.48105900  0.65090200  0.78026900  1
  Mg  Mg120  1  0.21745400  0.19835500  0.73047500  1
  Mg  Mg121  1  0.15908100  0.86226400  0.74119200  1
  Mg  Mg122  1  0.10472900  0.52704700  0.75313300  1
  Mg  Mg123  1  0.25624600  0.38594500  0.76600100  1
  Mg  Mg124  1  0.83845200  0.74041800  0.72615700  1
  Mg  Mg125  1  0.73141600  0.46760100  0.80748800  1
  Zn  Zn126  1  0.00973900  0.49235100  0.26441300  1
  Zn  Zn127  1  0.23794200  0.79439300  0.24851300  1
  Zn  Zn128  1  0.40300400  0.76054100  0.24393500  1
  Zn  Zn129  1  0.51674300  0.89216200  0.25103500  1
  Zn  Zn130  1  0.51939900  0.39462700  0.25177100  1
  Zn  Zn131  1  0.46057100  0.05486300  0.26223100  1
  Zn  Zn132  1  0.63338000  0.02219900  0.25745800  1
  Zn  Zn133  1  0.17911400  0.45462900  0.25897200  1
  Zn  Zn134  1  0.06513200  0.82705800  0.25328600  1
  Zn  Zn135  1  0.68877400  0.35690500  0.24633100  1
  Zn  Zn136  1  0.34925600  0.42462800  0.25537200  1
  Zn  Zn137  1  0.57624000  0.72409500  0.24044200  1
  Zn  Zn138  1  0.12227200  0.12516100  0.27030100  1
  Zn  Zn139  1  0.29550900  0.08871500  0.26680900  1
  Zn  Zn140  1  0.18176900  0.95709500  0.25970900  1
  Zn  Zn141  1  0.63115300  0.48326300  0.28902600  1
  Zn  Zn142  1  0.81742200  0.70822000  0.28916800  1
  Zn  Zn143  1  0.28471400  0.54841500  0.29443800  1
  Zn  Zn144  1  0.95471300  0.15330100  0.27501000  1
  Zn  Zn145  1  0.82792100  0.40144200  0.35532200  1
  Zn  Zn146  1  0.65544200  0.64850900  0.28195900  1
  Zn  Zn147  1  0.25834700  0.37917400  0.30082600  1
  Zn  Zn148  1  0.88554200  0.27508400  0.31262700  1
  Zn  Zn149  1  0.05612400  0.70348400  0.33942200  1
  Zn  Zn150  1  0.59644600  0.31081700  0.29230600  1
  Zn  Zn151  1  0.22118500  0.66963200  0.33484400  1
  Zn  Zn152  1  0.33492500  0.80125300  0.34194400  1
  Zn  Zn153  1  0.33758100  0.30371800  0.34268100  1
  Zn  Zn154  1  0.57164900  0.14903800  0.29858500  1
  Zn  Zn155  1  0.69927200  0.05012700  0.31248500  1
  Zn  Zn156  1  0.27875300  0.96395400  0.35314000  1
  Zn  Zn157  1  0.45156200  0.93129000  0.34836700  1
  Zn  Zn158  1  0.92024900  0.44753100  0.30934700  1
  Zn  Zn159  1  0.86125200  0.10983800  0.31969400  1
  Zn  Zn160  1  0.99729600  0.36372000  0.34988100  1
  Zn  Zn161  1  0.88331400  0.73614800  0.34419500  1
  Zn  Zn162  1  0.50695600  0.26599600  0.33724000  1
  Zn  Zn163  1  0.16743800  0.33371900  0.34628100  1
  Zn  Zn164  1  0.39442200  0.63318600  0.33135200  1
  Zn  Zn165  1  0.31164300  0.71613900  0.28886300  1
  Zn  Zn166  1  0.54228700  0.97351300  0.30432600  1
  Zn  Zn167  1  0.94045400  0.03425200  0.36121000  1
  Zn  Zn168  1  0.97440800  0.78483400  0.29732700  1
  Zn  Zn169  1  0.94504500  0.60930900  0.30306800  1
  Zn  Zn170  1  0.20505200  0.04220800  0.31279000  1
  Zn  Zn171  1  0.56198200  0.60504600  0.32664300  1
  Zn  Zn172  1  0.75834700  0.37917400  0.30082600  1
  Zn  Zn173  1  0.11369100  0.99780600  0.35771800  1
  Zn  Zn174  1  0.99995100  0.86618600  0.35061800  1
  Zn  Zn175  1  0.23198100  0.20993300  0.30721500  1
  Zn  Zn176  1  0.44933500  0.39235400  0.37993500  1
  Zn  Zn177  1  0.63560400  0.61731100  0.38007700  1
  Zn  Zn178  1  0.10289600  0.45750600  0.38534700  1
  Zn  Zn179  1  0.77289400  0.06239200  0.36591900  1
  Zn  Zn180  1  0.64610300  0.31053300  0.44623100  1
  Zn  Zn181  1  0.47362400  0.55760000  0.37286800  1
  Zn  Zn182  1  0.07652900  0.28826500  0.39173600  1
  Zn  Zn183  1  0.70372400  0.18417500  0.40353600  1
  Zn  Zn184  1  0.87430500  0.61257500  0.43033100  1
  Zn  Zn185  1  0.41462800  0.21990800  0.38321500  1
  Zn  Zn186  1  0.03936700  0.57872300  0.42575300  1
  Zn  Zn187  1  0.15310700  0.71034400  0.43285300  1
  Zn  Zn188  1  0.15576200  0.21280900  0.43359000  1
  Zn  Zn189  1  0.38983100  0.05812900  0.38949400  1
  Zn  Zn190  1  0.51745400  0.95921800  0.40339400  1
  Zn  Zn191  1  0.09693500  0.87304500  0.44404900  1
  Zn  Zn192  1  0.26974400  0.84038100  0.43927600  1
  Zn  Zn193  1  0.73843100  0.35662100  0.40025600  1
  Zn  Zn194  1  0.67943400  0.01892900  0.41060300  1
  Zn  Zn195  1  0.81547800  0.27281100  0.44079100  1
  Zn  Zn196  1  0.70149600  0.64523900  0.43510400  1
  Zn  Zn197  1  0.32513800  0.17508700  0.42814900  1
  Zn  Zn198  1  0.98562000  0.24281000  0.43719000  1
  Zn  Zn199  1  0.21260400  0.54227700  0.42226100  1
  Zn  Zn200  1  0.12982500  0.62523000  0.37977200  1
  Zn  Zn201  1  0.36046800  0.88260400  0.39523500  1
  Zn  Zn202  1  0.75863600  0.94334300  0.45212000  1
  Zn  Zn203  1  0.79259000  0.69392500  0.38823600  1
  Zn  Zn204  1  0.76322700  0.51840000  0.39397700  1
  Zn  Zn205  1  0.02323400  0.95129900  0.40369900  1
  Zn  Zn206  1  0.38016400  0.51413700  0.41755200  1
  Zn  Zn207  1  0.57652900  0.28826500  0.39173600  1
  Zn  Zn208  1  0.93187300  0.90689700  0.44862700  1
  Zn  Zn209  1  0.81813300  0.77527700  0.44152700  1
  Zn  Zn210  1  0.05016300  0.11902300  0.39812400  1
  Zn  Zn211  1  0.26751600  0.30144500  0.47084500  1
  Zn  Zn212  1  0.45378600  0.52640200  0.47098600  1
  Zn  Zn213  1  0.92107700  0.36659700  0.47625600  1
  Zn  Zn214  1  0.59107600  0.97148300  0.45682800  1
  Zn  Zn215  1  0.46428400  0.21962400  0.53714100  1
  Zn  Zn216  1  0.29180600  0.46669100  0.46377800  1
  Zn  Zn217  1  0.89471100  0.19735500  0.48264500  1
  Zn  Zn218  1  0.52190600  0.09326600  0.49444500  1
  Zn  Zn219  1  0.69248700  0.52166600  0.52124000  1
  Zn  Zn220  1  0.23280900  0.12899900  0.47412400  1
  Zn  Zn221  1  0.85754900  0.48781400  0.51666200  1
  Zn  Zn222  1  0.97128900  0.61943400  0.52376200  1
  Zn  Zn223  1  0.97394400  0.12190000  0.52449900  1
  Zn  Zn224  1  0.20801300  0.96722000  0.48040300  1
  Zn  Zn225  1  0.33563600  0.86830900  0.49430300  1
  Zn  Zn226  1  0.91511600  0.78213600  0.53495800  1
  Zn  Zn227  1  0.08792600  0.74947200  0.53018500  1
  Zn  Zn228  1  0.55661300  0.26571200  0.49116500  1
  Zn  Zn229  1  0.49761600  0.92802000  0.50151200  1
  Zn  Zn230  1  0.63366000  0.18190200  0.53170000  1
  Zn  Zn231  1  0.51967800  0.55433000  0.52601300  1
  Zn  Zn232  1  0.14331900  0.08417800  0.51905800  1
  Zn  Zn233  1  0.80380200  0.15190100  0.52809900  1
  Zn  Zn234  1  0.03078600  0.45136800  0.51317000  1
  Zn  Zn235  1  0.94800600  0.53432100  0.47068100  1
  Zn  Zn236  1  0.17865000  0.79169500  0.48614400  1
  Zn  Zn237  1  0.57681800  0.85243400  0.54302900  1
  Zn  Zn238  1  0.61077200  0.60301600  0.47914500  1
  Zn  Zn239  1  0.58140900  0.42749100  0.48488600  1
  Zn  Zn240  1  0.84141500  0.86039000  0.49460800  1
  Zn  Zn241  1  0.19834600  0.42322800  0.50846100  1
  Zn  Zn242  1  0.39471100  0.19735500  0.48264500  1
  Zn  Zn243  1  0.75005500  0.81598800  0.53953600  1
  Zn  Zn244  1  0.63631500  0.68436700  0.53243600  1
  Zn  Zn245  1  0.86834500  0.02811400  0.48903300  1
  Zn  Zn246  1  0.08569800  0.21053600  0.56175400  1
  Zn  Zn247  1  0.27196800  0.43549300  0.56189500  1
  Zn  Zn248  1  0.73925900  0.27568700  0.56716500  1
  Zn  Zn249  1  0.40925800  0.88057400  0.54773700  1
  Zn  Zn250  1  0.28246600  0.12871500  0.62805000  1
  Zn  Zn251  1  0.10998800  0.37578200  0.55468700  1
  Zn  Zn252  1  0.71289300  0.10644600  0.57355400  1
  Zn  Zn253  1  0.34008700  0.00235700  0.58535400  1
  Zn  Zn254  1  0.51066900  0.43075700  0.61214900  1
  Zn  Zn255  1  0.05099100  0.03808900  0.56503300  1
  Zn  Zn256  1  0.67573100  0.39690500  0.60757100  1
  Zn  Zn257  1  0.78947100  0.52852500  0.61467100  1
  Zn  Zn258  1  0.79212600  0.03099100  0.61540800  1
  Zn  Zn259  1  0.02619500  0.87631100  0.57131200  1
  Zn  Zn260  1  0.15381800  0.77740000  0.58521200  1
  Zn  Zn261  1  0.73329800  0.69122700  0.62586700  1
  Zn  Zn262  1  0.90610800  0.65856200  0.62109500  1
  Zn  Zn263  1  0.37479400  0.17480300  0.58207400  1
  Zn  Zn264  1  0.31579800  0.83711100  0.59242100  1
  Zn  Zn265  1  0.45184100  0.09099300  0.62260900  1
  Zn  Zn266  1  0.33786000  0.46342100  0.61692200  1
  Zn  Zn267  1  0.96150100  0.99326900  0.60996700  1
  Zn  Zn268  1  0.62198400  0.06099200  0.61900800  1
  Zn  Zn269  1  0.84896800  0.36045900  0.60407900  1
  Zn  Zn270  1  0.76618800  0.44341200  0.56159000  1
  Zn  Zn271  1  0.99683200  0.70078600  0.57705300  1
  Zn  Zn272  1  0.39500000  0.76152500  0.63393800  1
  Zn  Zn273  1  0.42895300  0.51210700  0.57005400  1
  Zn  Zn274  1  0.39959100  0.33658200  0.57579500  1
  Zn  Zn275  1  0.65959700  0.76948100  0.58551700  1
  Zn  Zn276  1  0.01652800  0.33231900  0.59937000  1
  Zn  Zn277  1  0.21289300  0.10644600  0.57355400  1
  Zn  Zn278  1  0.56823700  0.72507900  0.63044500  1
  Zn  Zn279  1  0.45449700  0.59345800  0.62334600  1
  Zn  Zn280  1  0.68652600  0.93720500  0.57994300  1
  Zn  Zn281  1  0.90388000  0.11962700  0.65266300  1
  Zn  Zn282  1  0.09015000  0.34458400  0.65280400  1
  Zn  Zn283  1  0.55744100  0.18477800  0.65807400  1
  Zn  Zn284  1  0.22744000  0.78966500  0.63864600  1
  Zn  Zn285  1  0.10064800  0.03780500  0.71895900  1
  Zn  Zn286  1  0.92816900  0.28487300  0.64559600  1
  Zn  Zn287  1  0.53107500  0.01553700  0.66446300  1
  Zn  Zn288  1  0.15826900  0.91144700  0.67626300  1
  Zn  Zn289  1  0.32885100  0.33984800  0.70305800  1
  Zn  Zn290  1  0.86917300  0.94718000  0.65594300  1
  Zn  Zn291  1  0.49391300  0.30599600  0.69848100  1
  Zn  Zn292  1  0.60765200  0.43761600  0.70558000  1
  Zn  Zn293  1  0.61030800  0.94008200  0.70631700  1
  Zn  Zn294  1  0.84437700  0.78540200  0.66222100  1
  Zn  Zn295  1  0.97199900  0.68649100  0.67612200  1
  Zn  Zn296  1  0.55148000  0.60031800  0.71677600  1
  Zn  Zn297  1  0.72428900  0.56765300  0.71200400  1
  Zn  Zn298  1  0.19297600  0.08389400  0.67298300  1
  Zn  Zn299  1  0.13398000  0.74620200  0.68333000  1
  Zn  Zn300  1  0.27002300  0.00008300  0.71351800  1
  Zn  Zn301  1  0.15604200  0.37251200  0.70783100  1
  Zn  Zn302  1  0.77968300  0.90236000  0.70087600  1
  Zn  Zn303  1  0.44016600  0.97008300  0.70991700  1
  Zn  Zn304  1  0.66715000  0.26955000  0.69498800  1
  Zn  Zn305  1  0.58437000  0.35250300  0.65249900  1
  Zn  Zn306  1  0.81501400  0.60987700  0.66796200  1
  Zn  Zn307  1  0.21318100  0.67061600  0.72484700  1
  Zn  Zn308  1  0.24713500  0.42119800  0.66096400  1
  Zn  Zn309  1  0.21777300  0.24567300  0.66670400  1
  Zn  Zn310  1  0.47777900  0.67857200  0.67642600  1
  Zn  Zn311  1  0.83470900  0.24141000  0.69028000  1
  Zn  Zn312  1  0.03107500  0.01553700  0.66446300  1
  Zn  Zn313  1  0.38641800  0.63417000  0.72135400  1
  Zn  Zn314  1  0.27267900  0.50254900  0.71425500  1
  Zn  Zn315  1  0.50470800  0.84629600  0.67085200  1
  Zn  Zn316  1  0.72206200  0.02871800  0.74357200  1
  Zn  Zn317  1  0.90833200  0.25367400  0.74371300  1
  Zn  Zn318  1  0.37562300  0.09386900  0.74898300  1
  Zn  Zn319  1  0.04562200  0.69875600  0.72955500  1
  Zn  Zn320  1  0.91883000  0.94689600  0.80986800  1
  Zn  Zn321  1  0.74635100  0.19396400  0.73650500  1
  Zn  Zn322  1  0.34925600  0.92462800  0.75537200  1
  Zn  Zn323  1  0.97645100  0.82053800  0.76717200  1
  Zn  Zn324  1  0.14703300  0.24893900  0.79396700  1
  Zn  Zn325  1  0.68735500  0.85627100  0.74685200  1
  Zn  Zn326  1  0.31209400  0.21508700  0.78939000  1
  Zn  Zn327  1  0.42583400  0.34670700  0.79648900  1
  Zn  Zn328  1  0.42849000  0.84917300  0.79722600  1
  Zn  Zn329  1  0.66255800  0.69449300  0.75313000  1
  Zn  Zn330  1  0.79018100  0.59558200  0.76703100  1
  Zn  Zn331  1  0.36966200  0.50940800  0.80768500  1
  Zn  Zn332  1  0.54247100  0.47674400  0.80291300  1
  Zn  Zn333  1  0.01115800  0.99298500  0.76389200  1
  Zn  Zn334  1  0.95216200  0.65529200  0.77423900  1
  Zn  Zn335  1  0.08820500  0.90917400  0.80442700  1
  Zn  Zn336  1  0.97422300  0.28160300  0.79874000  1
  Zn  Zn337  1  0.59786500  0.81145100  0.79178500  1
  Zn  Zn338  1  0.25834700  0.87917400  0.80082600  1
  Zn  Zn339  1  0.48533100  0.17864100  0.78589700  1
  Zn  Zn340  1  0.40255200  0.26159400  0.74340800  1
  Zn  Zn341  1  0.63319600  0.51896800  0.75887100  1
  Zn  Zn342  1  0.03136300  0.57970700  0.81575600  1
  Zn  Zn343  1  0.06531700  0.33028900  0.75187300  1
  Zn  Zn344  1  0.03595400  0.15476400  0.75761400  1
  Zn  Zn345  1  0.29596100  0.58766200  0.76733500  1
  Zn  Zn346  1  0.65289100  0.15050100  0.78118900  1
  Zn  Zn347  1  0.84925600  0.92462800  0.75537200  1
  Zn  Zn348  1  0.20460000  0.54326100  0.81226300  1
  Zn  Zn349  1  0.09086000  0.41164000  0.80516400  1
  Zn  Zn350  1  0.32289000  0.75538700  0.76176100  1
