# generated using pymatgen
data_Yb3Mg
_symmetry_space_group_name_H-M   'P 1'
_cell_length_a   7.34873276
_cell_length_b   9.48692644
_cell_length_c   43.88645600
_cell_angle_alpha   94.96393436
_cell_angle_beta   94.80267501
_cell_angle_gamma   67.21287579
_symmetry_Int_Tables_number   1
_chemical_formula_structural   Yb3Mg
_chemical_formula_sum   'Yb36 Mg12'
_cell_volume   2806.04166389
_cell_formula_units_Z   12
loop_
 _symmetry_equiv_pos_site_id
 _symmetry_equiv_pos_as_xyz
  1  'x, y, z'
loop_
 _atom_site_type_symbol
 _atom_site_label
 _atom_site_symmetry_multiplicity
 _atom_site_fract_x
 _atom_site_fract_y
 _atom_site_fract_z
 _atom_site_occupancy
  Yb  Yb0  1  0.05210500  0.95482600  0.25903500  1
  Yb  Yb1  1  0.64368600  0.21008700  0.20798300  1
  Yb  Yb2  1  0.15420900  0.21008700  0.20798300  1
  Yb  Yb3  1  0.64579100  0.28991300  0.29201700  1
  Yb  Yb4  1  0.15631400  0.28991300  0.29201700  1
  Yb  Yb5  1  0.74789500  0.54517400  0.24096500  1
  Yb  Yb6  1  0.85210500  0.45482600  0.35903500  1
  Yb  Yb7  1  0.44368600  0.71008700  0.30798300  1
  Yb  Yb8  1  0.95420900  0.71008700  0.30798300  1
  Yb  Yb9  1  0.44579100  0.78991300  0.39201700  1
  Yb  Yb10  1  0.95631400  0.78991300  0.39201700  1
  Yb  Yb11  1  0.54789500  0.04517400  0.34096500  1
  Yb  Yb12  1  0.65210500  0.95482600  0.45903500  1
  Yb  Yb13  1  0.24368600  0.21008700  0.40798300  1
  Yb  Yb14  1  0.75420900  0.21008700  0.40798300  1
  Yb  Yb15  1  0.24579100  0.28991300  0.49201700  1
  Yb  Yb16  1  0.75631400  0.28991300  0.49201700  1
  Yb  Yb17  1  0.34789500  0.54517400  0.44096500  1
  Yb  Yb18  1  0.45210500  0.45482600  0.55903500  1
  Yb  Yb19  1  0.04368600  0.71008700  0.50798300  1
  Yb  Yb20  1  0.55420900  0.71008700  0.50798300  1
  Yb  Yb21  1  0.04579100  0.78991300  0.59201700  1
  Yb  Yb22  1  0.55631400  0.78991300  0.59201700  1
  Yb  Yb23  1  0.14789500  0.04517400  0.54096500  1
  Yb  Yb24  1  0.25210500  0.95482600  0.65903500  1
  Yb  Yb25  1  0.84368600  0.21008700  0.60798300  1
  Yb  Yb26  1  0.35420900  0.21008700  0.60798300  1
  Yb  Yb27  1  0.84579100  0.28991300  0.69201700  1
  Yb  Yb28  1  0.35631400  0.28991300  0.69201700  1
  Yb  Yb29  1  0.94789500  0.54517400  0.64096500  1
  Yb  Yb30  1  0.05210500  0.45482600  0.75903500  1
  Yb  Yb31  1  0.64368600  0.71008700  0.70798300  1
  Yb  Yb32  1  0.15420900  0.71008700  0.70798300  1
  Yb  Yb33  1  0.64579100  0.78991300  0.79201700  1
  Yb  Yb34  1  0.15631400  0.78991300  0.79201700  1
  Yb  Yb35  1  0.74789500  0.04517400  0.74096500  1
  Mg  Mg36  1  0.55000000  0.95833300  0.25833300  1
  Mg  Mg37  1  0.25000000  0.54166700  0.24166700  1
  Mg  Mg38  1  0.35000000  0.45833300  0.35833300  1
  Mg  Mg39  1  0.05000000  0.04166700  0.34166700  1
  Mg  Mg40  1  0.15000000  0.95833300  0.45833300  1
  Mg  Mg41  1  0.85000000  0.54166700  0.44166700  1
  Mg  Mg42  1  0.95000000  0.45833300  0.55833300  1
  Mg  Mg43  1  0.65000000  0.04166700  0.54166700  1
  Mg  Mg44  1  0.75000000  0.95833300  0.65833300  1
  Mg  Mg45  1  0.45000000  0.54166700  0.64166700  1
  Mg  Mg46  1  0.55000000  0.45833300  0.75833300  1
  Mg  Mg47  1  0.25000000  0.04166700  0.74166700  1
