# generated using pymatgen
data_Mg2Ga5
_symmetry_space_group_name_H-M   'P 1'
_cell_length_a   7.14992847
_cell_length_b   7.14992865
_cell_length_c   43.98030700
_cell_angle_alpha   88.65072652
_cell_angle_beta   88.65072649
_cell_angle_gamma   76.00064847
_symmetry_Int_Tables_number   1
_chemical_formula_structural   Mg2Ga5
_chemical_formula_sum   'Mg20 Ga50'
_cell_volume   2180.58501334
_cell_formula_units_Z   10
loop_
 _symmetry_equiv_pos_site_id
 _symmetry_equiv_pos_as_xyz
  1  'x, y, z'
loop_
 _atom_site_type_symbol
 _atom_site_label
 _atom_site_symmetry_multiplicity
 _atom_site_fract_x
 _atom_site_fract_y
 _atom_site_fract_z
 _atom_site_occupancy
  Mg  Mg0  1  0.32658500  0.92463400  0.78737800  1
  Mg  Mg1  1  0.92463400  0.32658500  0.78737800  1
  Mg  Mg2  1  0.70036600  0.29841500  0.71262200  1
  Mg  Mg3  1  0.29841500  0.70036600  0.71262200  1
  Mg  Mg4  1  0.95158500  0.54963400  0.66237800  1
  Mg  Mg5  1  0.54963400  0.95158500  0.66237800  1
  Mg  Mg6  1  0.32536600  0.92341500  0.58762200  1
  Mg  Mg7  1  0.92341500  0.32536600  0.58762200  1
  Mg  Mg8  1  0.57658500  0.17463400  0.53737800  1
  Mg  Mg9  1  0.17463400  0.57658500  0.53737800  1
  Mg  Mg10  1  0.95036600  0.54841500  0.46262200  1
  Mg  Mg11  1  0.54841500  0.95036600  0.46262200  1
  Mg  Mg12  1  0.20158500  0.79963400  0.41237800  1
  Mg  Mg13  1  0.79963400  0.20158500  0.41237800  1
  Mg  Mg14  1  0.57536600  0.17341500  0.33762200  1
  Mg  Mg15  1  0.17341500  0.57536600  0.33762200  1
  Mg  Mg16  1  0.82658500  0.42463400  0.28737800  1
  Mg  Mg17  1  0.42463400  0.82658500  0.28737800  1
  Mg  Mg18  1  0.20036600  0.79841500  0.21262200  1
  Mg  Mg19  1  0.79841500  0.20036600  0.21262200  1
  Ga  Ga20  1  0.58568100  0.17760000  0.77304700  1
  Ga  Ga21  1  0.06661500  0.06661500  0.73605200  1
  Ga  Ga22  1  0.69666600  0.69666600  0.81004200  1
  Ga  Ga23  1  0.17760000  0.58568100  0.77304700  1
  Ga  Ga24  1  0.70322500  0.70322500  0.71357500  1
  Ga  Ga25  1  0.92177500  0.92177500  0.78642500  1
  Ga  Ga26  1  0.55838500  0.55838500  0.76394800  1
  Ga  Ga27  1  0.03931900  0.44740000  0.72695300  1
  Ga  Ga28  1  0.44740000  0.03931900  0.72695300  1
  Ga  Ga29  1  0.92833400  0.92833400  0.68995800  1
  Ga  Ga30  1  0.21068100  0.80260000  0.64804700  1
  Ga  Ga31  1  0.69161500  0.69161500  0.61105200  1
  Ga  Ga32  1  0.32166600  0.32166600  0.68504200  1
  Ga  Ga33  1  0.80260000  0.21068100  0.64804700  1
  Ga  Ga34  1  0.32822500  0.32822500  0.58857500  1
  Ga  Ga35  1  0.54677500  0.54677500  0.66142500  1
  Ga  Ga36  1  0.18338500  0.18338500  0.63894800  1
  Ga  Ga37  1  0.66431900  0.07240000  0.60195300  1
  Ga  Ga38  1  0.07240000  0.66431900  0.60195300  1
  Ga  Ga39  1  0.55333400  0.55333400  0.56495800  1
  Ga  Ga40  1  0.83568100  0.42760000  0.52304700  1
  Ga  Ga41  1  0.31661500  0.31661500  0.48605200  1
  Ga  Ga42  1  0.94666600  0.94666600  0.56004200  1
  Ga  Ga43  1  0.42760000  0.83568100  0.52304700  1
  Ga  Ga44  1  0.95322500  0.95322500  0.46357500  1
  Ga  Ga45  1  0.17177500  0.17177500  0.53642500  1
  Ga  Ga46  1  0.80838500  0.80838500  0.51394800  1
  Ga  Ga47  1  0.28931900  0.69740000  0.47695300  1
  Ga  Ga48  1  0.69740000  0.28931900  0.47695300  1
  Ga  Ga49  1  0.17833400  0.17833400  0.43995800  1
  Ga  Ga50  1  0.46068100  0.05260000  0.39804700  1
  Ga  Ga51  1  0.94161500  0.94161500  0.36105200  1
  Ga  Ga52  1  0.57166600  0.57166600  0.43504200  1
  Ga  Ga53  1  0.05260000  0.46068100  0.39804700  1
  Ga  Ga54  1  0.57822500  0.57822500  0.33857500  1
  Ga  Ga55  1  0.79677500  0.79677500  0.41142500  1
  Ga  Ga56  1  0.43338500  0.43338500  0.38894800  1
  Ga  Ga57  1  0.91431900  0.32240000  0.35195300  1
  Ga  Ga58  1  0.32240000  0.91431900  0.35195300  1
  Ga  Ga59  1  0.80333400  0.80333400  0.31495800  1
  Ga  Ga60  1  0.08568100  0.67760000  0.27304700  1
  Ga  Ga61  1  0.56661500  0.56661500  0.23605200  1
  Ga  Ga62  1  0.19666600  0.19666600  0.31004200  1
  Ga  Ga63  1  0.67760000  0.08568100  0.27304700  1
  Ga  Ga64  1  0.20322500  0.20322500  0.21357500  1
  Ga  Ga65  1  0.42177500  0.42177500  0.28642500  1
  Ga  Ga66  1  0.05838500  0.05838500  0.26394800  1
  Ga  Ga67  1  0.53931900  0.94740000  0.22695300  1
  Ga  Ga68  1  0.94740000  0.53931900  0.22695300  1
  Ga  Ga69  1  0.42833400  0.42833400  0.18995800  1
