# generated using pymatgen
data_Y3Mg
_symmetry_space_group_name_H-M   'P 1'
_cell_length_a   5.49911400
_cell_length_b   11.49119000
_cell_length_c   42.14252700
_cell_angle_alpha   90.00000000
_cell_angle_beta   90.00000000
_cell_angle_gamma   90.00000000
_symmetry_Int_Tables_number   1
_chemical_formula_structural   Y3Mg
_chemical_formula_sum   'Y42 Mg14'
_cell_volume   2663.04375535
_cell_formula_units_Z   14
loop_
 _symmetry_equiv_pos_site_id
 _symmetry_equiv_pos_as_xyz
  1  'x, y, z'
loop_
 _atom_site_type_symbol
 _atom_site_label
 _atom_site_symmetry_multiplicity
 _atom_site_fract_x
 _atom_site_fract_y
 _atom_site_fract_z
 _atom_site_occupancy
  Y  Y0  1  0.50000000  0.00000000  0.20454500  1
  Y  Y1  1  0.00000000  0.22609400  0.20454500  1
  Y  Y2  1  0.50000000  0.27390600  0.25000000  1
  Y  Y3  1  0.00000000  0.50000000  0.25000000  1
  Y  Y4  1  0.50000000  0.72609400  0.25000000  1
  Y  Y5  1  0.00000000  0.77390600  0.20454500  1
  Y  Y6  1  0.50000000  0.00000000  0.29545500  1
  Y  Y7  1  0.00000000  0.22609400  0.29545500  1
  Y  Y8  1  0.50000000  0.27390600  0.34090900  1
  Y  Y9  1  0.00000000  0.50000000  0.34090900  1
  Y  Y10  1  0.50000000  0.72609400  0.34090900  1
  Y  Y11  1  0.00000000  0.77390600  0.29545500  1
  Y  Y12  1  0.50000000  0.00000000  0.38636400  1
  Y  Y13  1  0.00000000  0.22609400  0.38636400  1
  Y  Y14  1  0.50000000  0.27390600  0.43181800  1
  Y  Y15  1  0.00000000  0.50000000  0.43181800  1
  Y  Y16  1  0.50000000  0.72609400  0.43181800  1
  Y  Y17  1  0.00000000  0.77390600  0.38636400  1
  Y  Y18  1  0.50000000  0.00000000  0.47727300  1
  Y  Y19  1  0.00000000  0.22609400  0.47727300  1
  Y  Y20  1  0.50000000  0.27390600  0.52272700  1
  Y  Y21  1  0.00000000  0.50000000  0.52272700  1
  Y  Y22  1  0.50000000  0.72609400  0.52272700  1
  Y  Y23  1  0.00000000  0.77390600  0.47727300  1
  Y  Y24  1  0.50000000  0.00000000  0.56818200  1
  Y  Y25  1  0.00000000  0.22609400  0.56818200  1
  Y  Y26  1  0.50000000  0.27390600  0.61363600  1
  Y  Y27  1  0.00000000  0.50000000  0.61363600  1
  Y  Y28  1  0.50000000  0.72609400  0.61363600  1
  Y  Y29  1  0.00000000  0.77390600  0.56818200  1
  Y  Y30  1  0.50000000  0.00000000  0.65909100  1
  Y  Y31  1  0.00000000  0.22609400  0.65909100  1
  Y  Y32  1  0.50000000  0.27390600  0.70454500  1
  Y  Y33  1  0.00000000  0.50000000  0.70454500  1
  Y  Y34  1  0.50000000  0.72609400  0.70454500  1
  Y  Y35  1  0.00000000  0.77390600  0.65909100  1
  Y  Y36  1  0.50000000  0.00000000  0.75000000  1
  Y  Y37  1  0.00000000  0.22609400  0.75000000  1
  Y  Y38  1  0.50000000  0.27390600  0.79545500  1
  Y  Y39  1  0.00000000  0.50000000  0.79545500  1
  Y  Y40  1  0.50000000  0.72609400  0.79545500  1
  Y  Y41  1  0.00000000  0.77390600  0.75000000  1
  Mg  Mg42  1  0.00000000  0.00000000  0.25000000  1
  Mg  Mg43  1  0.50000000  0.50000000  0.20454500  1
  Mg  Mg44  1  0.00000000  0.00000000  0.34090900  1
  Mg  Mg45  1  0.50000000  0.50000000  0.29545500  1
  Mg  Mg46  1  0.00000000  0.00000000  0.43181800  1
  Mg  Mg47  1  0.50000000  0.50000000  0.38636400  1
  Mg  Mg48  1  0.00000000  0.00000000  0.52272700  1
  Mg  Mg49  1  0.50000000  0.50000000  0.47727300  1
  Mg  Mg50  1  0.00000000  0.00000000  0.61363600  1
  Mg  Mg51  1  0.50000000  0.50000000  0.56818200  1
  Mg  Mg52  1  0.00000000  0.00000000  0.70454500  1
  Mg  Mg53  1  0.50000000  0.50000000  0.65909100  1
  Mg  Mg54  1  0.00000000  0.00000000  0.79545500  1
  Mg  Mg55  1  0.50000000  0.50000000  0.75000000  1
