# generated using pymatgen
data_MgHg2
_symmetry_space_group_name_H-M   'P 1'
_cell_length_a   3.51707100
_cell_length_b   7.04379443
_cell_length_c   55.94811800
_cell_angle_alpha   88.10027884
_cell_angle_beta   90.00000000
_cell_angle_gamma   90.00000000
_symmetry_Int_Tables_number   1
_chemical_formula_structural   MgHg2
_chemical_formula_sum   'Mg12 Hg24'
_cell_volume   1385.27031183
_cell_formula_units_Z   12
loop_
 _symmetry_equiv_pos_site_id
 _symmetry_equiv_pos_as_xyz
  1  'x, y, z'
loop_
 _atom_site_type_symbol
 _atom_site_label
 _atom_site_symmetry_multiplicity
 _atom_site_fract_x
 _atom_site_fract_y
 _atom_site_fract_z
 _atom_site_occupancy
  Mg  Mg0  1  0.50000000  0.95641600  0.30202100  1
  Mg  Mg1  1  0.00000000  0.14358400  0.39797900  1
  Mg  Mg2  1  0.00000000  0.25641600  0.20202100  1
  Mg  Mg3  1  0.50000000  0.44358400  0.29797900  1
  Mg  Mg4  1  0.50000000  0.35641600  0.50202100  1
  Mg  Mg5  1  0.00000000  0.54358400  0.59797900  1
  Mg  Mg6  1  0.00000000  0.65641600  0.40202100  1
  Mg  Mg7  1  0.50000000  0.84358400  0.49797900  1
  Mg  Mg8  1  0.50000000  0.75641600  0.70202100  1
  Mg  Mg9  1  0.00000000  0.94358400  0.79797900  1
  Mg  Mg10  1  0.00000000  0.05641600  0.60202100  1
  Mg  Mg11  1  0.50000000  0.24358400  0.69797900  1
  Hg  Hg12  1  0.00000000  0.68196600  0.33021300  1
  Hg  Hg13  1  0.50000000  0.41803400  0.36978700  1
  Hg  Hg14  1  0.00000000  0.20267500  0.33214500  1
  Hg  Hg15  1  0.50000000  0.89732500  0.36785500  1
  Hg  Hg16  1  0.50000000  0.98196600  0.23021300  1
  Hg  Hg17  1  0.00000000  0.71803400  0.26978700  1
  Hg  Hg18  1  0.50000000  0.50267500  0.23214500  1
  Hg  Hg19  1  0.00000000  0.19732500  0.26785500  1
  Hg  Hg20  1  0.00000000  0.08196600  0.53021300  1
  Hg  Hg21  1  0.50000000  0.81803400  0.56978700  1
  Hg  Hg22  1  0.00000000  0.60267500  0.53214500  1
  Hg  Hg23  1  0.50000000  0.29732500  0.56785500  1
  Hg  Hg24  1  0.50000000  0.38196600  0.43021300  1
  Hg  Hg25  1  0.00000000  0.11803400  0.46978700  1
  Hg  Hg26  1  0.50000000  0.90267500  0.43214500  1
  Hg  Hg27  1  0.00000000  0.59732500  0.46785500  1
  Hg  Hg28  1  0.00000000  0.48196600  0.73021300  1
  Hg  Hg29  1  0.50000000  0.21803400  0.76978700  1
  Hg  Hg30  1  0.00000000  0.00267500  0.73214500  1
  Hg  Hg31  1  0.50000000  0.69732500  0.76785500  1
  Hg  Hg32  1  0.50000000  0.78196600  0.63021300  1
  Hg  Hg33  1  0.00000000  0.51803400  0.66978700  1
  Hg  Hg34  1  0.50000000  0.30267500  0.63214500  1
  Hg  Hg35  1  0.00000000  0.99732500  0.66785500  1
