# generated using pymatgen
data_Mg3B20
_symmetry_space_group_name_H-M   'P 1'
_cell_length_a   7.26364870
_cell_length_b   7.26364888
_cell_length_c   48.33922800
_cell_angle_alpha   94.01003019
_cell_angle_beta   94.01003029
_cell_angle_gamma   92.20890678
_symmetry_Int_Tables_number   1
_chemical_formula_structural   Mg3B20
_chemical_formula_sum   'Mg21 B140'
_cell_volume   2535.51535720
_cell_formula_units_Z   7
loop_
 _symmetry_equiv_pos_site_id
 _symmetry_equiv_pos_as_xyz
  1  'x, y, z'
loop_
 _atom_site_type_symbol
 _atom_site_label
 _atom_site_symmetry_multiplicity
 _atom_site_fract_x
 _atom_site_fract_y
 _atom_site_fract_z
 _atom_site_occupancy
  Mg  Mg0  1  0.12305200  0.62305200  0.70156200  1
  Mg  Mg1  1  0.92305200  0.42305200  0.65156300  1
  Mg  Mg2  1  0.72305200  0.22305200  0.60156200  1
  Mg  Mg3  1  0.45426000  0.95426000  0.68802800  1
  Mg  Mg4  1  0.39184400  0.89184400  0.61509700  1
  Mg  Mg5  1  0.52305200  0.02305200  0.55156200  1
  Mg  Mg6  1  0.32305200  0.82305200  0.50156200  1
  Mg  Mg7  1  0.05426000  0.55426000  0.58802800  1
  Mg  Mg8  1  0.99184400  0.49184400  0.51509700  1
  Mg  Mg9  1  0.12305200  0.62305200  0.45156300  1
  Mg  Mg10  1  0.92305200  0.42305200  0.40156300  1
  Mg  Mg11  1  0.65426000  0.15426000  0.48802800  1
  Mg  Mg12  1  0.59184400  0.09184400  0.41509700  1
  Mg  Mg13  1  0.72305200  0.22305200  0.35156300  1
  Mg  Mg14  1  0.52305200  0.02305200  0.30156200  1
  Mg  Mg15  1  0.25426000  0.75426000  0.38802800  1
  Mg  Mg16  1  0.19184400  0.69184400  0.31509700  1
  Mg  Mg17  1  0.32305200  0.82305200  0.25156300  1
  Mg  Mg18  1  0.12305200  0.62305200  0.20156300  1
  Mg  Mg19  1  0.85426000  0.35426000  0.28802800  1
  Mg  Mg20  1  0.79184400  0.29184400  0.21509700  1
  B  B21  1  0.79439800  0.51339400  0.61308900  1
  B  B22  1  0.87540900  0.71974000  0.63137400  1
  B  B23  1  0.07269800  0.91702900  0.68069600  1
  B  B24  1  0.94656000  0.11115400  0.63392800  1
  B  B25  1  0.10381600  0.77155100  0.64912400  1
  B  B26  1  0.02252400  0.89523400  0.61966500  1
  B  B27  1  0.14697100  0.01968000  0.65077700  1
  B  B28  1  0.23495000  0.39954400  0.66919700  1
  B  B29  1  0.01339400  0.29439800  0.61308900  1
  B  B30  1  0.27155100  0.60381600  0.64912400  1
  B  B31  1  0.21974000  0.37540900  0.63137400  1
  B  B32  1  0.41702900  0.57269800  0.68069600  1
  B  B33  1  0.32642400  0.19913300  0.65234800  1
  B  B34  1  0.45087000  0.32358000  0.68346000  1
  B  B35  1  0.39523400  0.52252400  0.61966500  1
  B  B36  1  0.51968000  0.64697100  0.65077700  1
  B  B37  1  0.42907500  0.27340600  0.62242900  1
  B  B38  1  0.62636400  0.47069500  0.67175100  1
  B  B39  1  0.57455300  0.24228800  0.65400100  1
  B  B40  1  0.83271000  0.55170600  0.69003600  1
  B  B41  1  0.61115400  0.44656000  0.63392800  1
  B  B42  1  0.69913300  0.82642400  0.65234800  1
  B  B43  1  0.82358000  0.95087000  0.68346000  1
  B  B44  1  0.74228800  0.07455300  0.65400100  1
  B  B45  1  0.89954400  0.73495000  0.66919700  1
  B  B46  1  0.77340600  0.92907500  0.62242900  1
  B  B47  1  0.97069500  0.12636400  0.67175100  1
  B  B48  1  0.05170600  0.33271000  0.69003600  1
  B  B49  1  0.39439800  0.11339400  0.51308900  1
  B  B50  1  0.47540900  0.31974000  0.53137400  1
  B  B51  1  0.67269800  0.51702900  0.58069600  1
  B  B52  1  0.54656000  0.71115400  0.53392800  1
  B  B53  1  0.70381600  0.37155100  0.54912400  1
  B  B54  1  0.62252400  0.49523400  0.51966500  1
  B  B55  1  0.74697100  0.61968000  0.55077700  1
  B  B56  1  0.83495000  0.99954400  0.56919700  1
  B  B57  1  0.61339400  0.89439800  0.51308900  1
  B  B58  1  0.87155100  0.20381600  0.54912400  1
  B  B59  1  0.81974000  0.97540900  0.53137400  1
  B  B60  1  0.01702900  0.17269800  0.58069600  1
  B  B61  1  0.92642400  0.79913300  0.55234800  1
  B  B62  1  0.05087000  0.92358000  0.58346000  1
  B  B63  1  0.99523400  0.12252400  0.51966500  1
  B  B64  1  0.11968000  0.24697100  0.55077700  1
  B  B65  1  0.02907500  0.87340600  0.52242900  1
  B  B66  1  0.22636400  0.07069500  0.57175100  1
  B  B67  1  0.17455300  0.84228800  0.55400100  1
  B  B68  1  0.43271000  0.15170600  0.59003600  1
  B  B69  1  0.21115400  0.04656000  0.53392800  1
  B  B70  1  0.29913300  0.42642400  0.55234800  1
  B  B71  1  0.42358000  0.55087000  0.58346000  1
  B  B72  1  0.34228800  0.67455300  0.55400100  1
  B  B73  1  0.49954400  0.33495000  0.56919700  1
  B  B74  1  0.37340600  0.52907500  0.52242900  1
  B  B75  1  0.57069500  0.72636400  0.57175100  1
  B  B76  1  0.65170600  0.93271000  0.59003600  1
  B  B77  1  0.99439800  0.71339400  0.41308900  1
  B  B78  1  0.07540900  0.91974000  0.43137400  1
  B  B79  1  0.27269800  0.11702900  0.48069600  1
  B  B80  1  0.14656000  0.31115400  0.43392800  1
  B  B81  1  0.30381600  0.97155100  0.44912400  1
  B  B82  1  0.22252400  0.09523400  0.41966500  1
  B  B83  1  0.34697100  0.21968000  0.45077700  1
  B  B84  1  0.43495000  0.59954400  0.46919700  1
  B  B85  1  0.21339400  0.49439800  0.41308900  1
  B  B86  1  0.47155100  0.80381600  0.44912400  1
  B  B87  1  0.41974000  0.57540900  0.43137400  1
  B  B88  1  0.61702900  0.77269800  0.48069600  1
  B  B89  1  0.52642400  0.39913300  0.45234800  1
  B  B90  1  0.65087000  0.52358000  0.48346000  1
  B  B91  1  0.59523400  0.72252400  0.41966500  1
  B  B92  1  0.71968000  0.84697100  0.45077700  1
  B  B93  1  0.62907500  0.47340600  0.42242900  1
  B  B94  1  0.82636400  0.67069500  0.47175100  1
  B  B95  1  0.77455300  0.44228800  0.45400100  1
  B  B96  1  0.03271000  0.75170600  0.49003600  1
  B  B97  1  0.81115400  0.64656000  0.43392800  1
  B  B98  1  0.89913300  0.02642400  0.45234800  1
  B  B99  1  0.02358000  0.15087000  0.48346000  1
  B  B100  1  0.94228800  0.27455300  0.45400100  1
  B  B101  1  0.09954400  0.93495000  0.46919700  1
  B  B102  1  0.97340600  0.12907500  0.42242900  1
  B  B103  1  0.17069500  0.32636400  0.47175100  1
  B  B104  1  0.25170600  0.53271000  0.49003600  1
  B  B105  1  0.59439800  0.31339400  0.31308900  1
  B  B106  1  0.67540900  0.51974000  0.33137400  1
  B  B107  1  0.87269800  0.71702900  0.38069600  1
  B  B108  1  0.74656000  0.91115400  0.33392800  1
  B  B109  1  0.90381600  0.57155100  0.34912400  1
  B  B110  1  0.82252400  0.69523400  0.31966500  1
  B  B111  1  0.94697100  0.81968000  0.35077700  1
  B  B112  1  0.03495000  0.19954400  0.36919700  1
  B  B113  1  0.81339400  0.09439800  0.31308900  1
  B  B114  1  0.07155100  0.40381600  0.34912400  1
  B  B115  1  0.01974000  0.17540900  0.33137400  1
  B  B116  1  0.21702900  0.37269800  0.38069600  1
  B  B117  1  0.12642400  0.99913300  0.35234800  1
  B  B118  1  0.25087000  0.12358000  0.38346000  1
  B  B119  1  0.19523400  0.32252400  0.31966500  1
  B  B120  1  0.31968000  0.44697100  0.35077700  1
  B  B121  1  0.22907500  0.07340600  0.32242900  1
  B  B122  1  0.42636400  0.27069500  0.37175100  1
  B  B123  1  0.37455300  0.04228800  0.35400100  1
  B  B124  1  0.63271000  0.35170600  0.39003600  1
  B  B125  1  0.41115400  0.24656000  0.33392800  1
  B  B126  1  0.49913300  0.62642400  0.35234800  1
  B  B127  1  0.62358000  0.75087000  0.38346000  1
  B  B128  1  0.54228800  0.87455300  0.35400100  1
  B  B129  1  0.69954400  0.53495000  0.36919700  1
  B  B130  1  0.57340600  0.72907500  0.32242900  1
  B  B131  1  0.77069500  0.92636400  0.37175100  1
  B  B132  1  0.85170600  0.13271000  0.39003600  1
  B  B133  1  0.19439800  0.91339400  0.21308900  1
  B  B134  1  0.27540900  0.11974000  0.23137400  1
  B  B135  1  0.47269800  0.31702900  0.28069600  1
  B  B136  1  0.34656000  0.51115400  0.23392800  1
  B  B137  1  0.50381600  0.17155100  0.24912400  1
  B  B138  1  0.42252400  0.29523400  0.21966500  1
  B  B139  1  0.54697100  0.41968000  0.25077700  1
  B  B140  1  0.63495000  0.79954400  0.26919700  1
  B  B141  1  0.41339400  0.69439800  0.21308900  1
  B  B142  1  0.67155100  0.00381600  0.24912400  1
  B  B143  1  0.61974000  0.77540900  0.23137400  1
  B  B144  1  0.81702900  0.97269800  0.28069600  1
  B  B145  1  0.72642400  0.59913300  0.25234800  1
  B  B146  1  0.85087000  0.72358000  0.28346000  1
  B  B147  1  0.79523400  0.92252400  0.21966500  1
  B  B148  1  0.91968000  0.04697100  0.25077700  1
  B  B149  1  0.82907500  0.67340600  0.22242900  1
  B  B150  1  0.02636400  0.87069500  0.27175100  1
  B  B151  1  0.97455300  0.64228800  0.25400100  1
  B  B152  1  0.23271000  0.95170600  0.29003600  1
  B  B153  1  0.01115400  0.84656000  0.23392800  1
  B  B154  1  0.09913300  0.22642400  0.25234800  1
  B  B155  1  0.22358000  0.35087000  0.28346000  1
  B  B156  1  0.14228800  0.47455300  0.25400100  1
  B  B157  1  0.29954400  0.13495000  0.26919700  1
  B  B158  1  0.17340600  0.32907500  0.22242900  1
  B  B159  1  0.37069500  0.52636400  0.27175100  1
  B  B160  1  0.45170600  0.73271000  0.29003600  1
