# generated using pymatgen
data_Mg28Rh11
_symmetry_space_group_name_H-M   'P 1'
_cell_length_a   8.03467500
_cell_length_b   14.96547200
_cell_length_c   43.20159700
_cell_angle_alpha   90.00000000
_cell_angle_beta   90.00000000
_cell_angle_gamma   90.00000000
_symmetry_Int_Tables_number   1
_chemical_formula_structural   Mg28Rh11
_chemical_formula_sum   'Mg112 Rh44'
_cell_volume   5194.67682923
_cell_formula_units_Z   4
loop_
 _symmetry_equiv_pos_site_id
 _symmetry_equiv_pos_as_xyz
  1  'x, y, z'
loop_
 _atom_site_type_symbol
 _atom_site_label
 _atom_site_symmetry_multiplicity
 _atom_site_fract_x
 _atom_site_fract_y
 _atom_site_fract_z
 _atom_site_occupancy
  Mg  Mg0  1  0.50000000  0.59172800  0.27857100  1
  Mg  Mg1  1  0.00000000  0.59172800  0.27857100  1
  Mg  Mg2  1  0.25000000  0.32161100  0.24064100  1
  Mg  Mg3  1  0.75000000  0.86184400  0.24064100  1
  Mg  Mg4  1  0.75000000  0.05149400  0.27857100  1
  Mg  Mg5  1  0.25000000  0.13196100  0.27857100  1
  Mg  Mg6  1  0.25000000  0.82161100  0.21650100  1
  Mg  Mg7  1  0.75000000  0.36184400  0.21650100  1
  Mg  Mg8  1  0.56451600  0.68737700  0.22118200  1
  Mg  Mg9  1  0.06451600  0.49607800  0.22118200  1
  Mg  Mg10  1  0.06451600  0.78302600  0.27857100  1
  Mg  Mg11  1  0.56451600  0.40042900  0.27857100  1
  Mg  Mg12  1  0.56451600  0.18737700  0.23596100  1
  Mg  Mg13  1  0.43548400  0.99607800  0.23596100  1
  Mg  Mg14  1  0.43548400  0.49607800  0.22118200  1
  Mg  Mg15  1  0.06451600  0.99607800  0.23596100  1
  Mg  Mg16  1  0.43548400  0.78302600  0.27857100  1
  Mg  Mg17  1  0.93548400  0.40042900  0.27857100  1
  Mg  Mg18  1  0.93548400  0.68737700  0.22118200  1
  Mg  Mg19  1  0.93548400  0.18737700  0.23596100  1
  Mg  Mg20  1  0.50000000  0.09172800  0.37857100  1
  Mg  Mg21  1  1.00000000  0.09172800  0.37857100  1
  Mg  Mg22  1  0.25000000  0.82161100  0.34064100  1
  Mg  Mg23  1  0.75000000  0.36184400  0.34064100  1
  Mg  Mg24  1  0.75000000  0.55149400  0.37857100  1
  Mg  Mg25  1  0.25000000  0.63196100  0.37857100  1
  Mg  Mg26  1  0.25000000  0.32161100  0.31650100  1
  Mg  Mg27  1  0.75000000  0.86184400  0.31650100  1
  Mg  Mg28  1  0.56451600  0.18737700  0.32118200  1
  Mg  Mg29  1  0.06451600  0.99607800  0.32118200  1
  Mg  Mg30  1  0.06451600  0.28302600  0.37857100  1
  Mg  Mg31  1  0.56451600  0.90042900  0.37857100  1
  Mg  Mg32  1  0.56451600  0.68737700  0.33596100  1
  Mg  Mg33  1  0.43548400  0.49607800  0.33596100  1
  Mg  Mg34  1  0.43548400  0.99607800  0.32118200  1
  Mg  Mg35  1  0.06451600  0.49607800  0.33596100  1
  Mg  Mg36  1  0.43548400  0.28302600  0.37857100  1
  Mg  Mg37  1  0.93548400  0.90042900  0.37857100  1
  Mg  Mg38  1  0.93548400  0.18737700  0.32118200  1
  Mg  Mg39  1  0.93548400  0.68737700  0.33596100  1
  Mg  Mg40  1  0.50000000  0.59172800  0.47857100  1
  Mg  Mg41  1  1.00000000  0.59172800  0.47857100  1
  Mg  Mg42  1  0.25000000  0.32161100  0.44064100  1
  Mg  Mg43  1  0.75000000  0.86184400  0.44064100  1
  Mg  Mg44  1  0.75000000  0.05149400  0.47857100  1
  Mg  Mg45  1  0.25000000  0.13196100  0.47857100  1
  Mg  Mg46  1  0.25000000  0.82161100  0.41650100  1
  Mg  Mg47  1  0.75000000  0.36184400  0.41650100  1
  Mg  Mg48  1  0.56451600  0.68737700  0.42118200  1
  Mg  Mg49  1  0.06451600  0.49607800  0.42118200  1
  Mg  Mg50  1  0.06451600  0.78302600  0.47857100  1
  Mg  Mg51  1  0.56451600  0.40042900  0.47857100  1
  Mg  Mg52  1  0.56451600  0.18737700  0.43596100  1
  Mg  Mg53  1  0.43548400  0.99607800  0.43596100  1
  Mg  Mg54  1  0.43548400  0.49607800  0.42118200  1
  Mg  Mg55  1  0.06451600  0.99607800  0.43596100  1
  Mg  Mg56  1  0.43548400  0.78302600  0.47857100  1
  Mg  Mg57  1  0.93548400  0.40042900  0.47857100  1
  Mg  Mg58  1  0.93548400  0.68737700  0.42118200  1
  Mg  Mg59  1  0.93548400  0.18737700  0.43596100  1
  Mg  Mg60  1  0.50000000  0.09172800  0.57857100  1
  Mg  Mg61  1  1.00000000  0.09172800  0.57857100  1
  Mg  Mg62  1  0.25000000  0.82161100  0.54064100  1
  Mg  Mg63  1  0.75000000  0.36184400  0.54064100  1
  Mg  Mg64  1  0.75000000  0.55149400  0.57857100  1
  Mg  Mg65  1  0.25000000  0.63196100  0.57857100  1
  Mg  Mg66  1  0.25000000  0.32161100  0.51650100  1
  Mg  Mg67  1  0.75000000  0.86184400  0.51650100  1
  Mg  Mg68  1  0.56451600  0.18737700  0.52118200  1
  Mg  Mg69  1  0.06451600  0.99607800  0.52118200  1
  Mg  Mg70  1  0.06451600  0.28302600  0.57857100  1
  Mg  Mg71  1  0.56451600  0.90042900  0.57857100  1
  Mg  Mg72  1  0.56451600  0.68737700  0.53596100  1
  Mg  Mg73  1  0.43548400  0.49607800  0.53596100  1
  Mg  Mg74  1  0.43548400  0.99607800  0.52118200  1
  Mg  Mg75  1  0.06451600  0.49607800  0.53596100  1
  Mg  Mg76  1  0.43548400  0.28302600  0.57857100  1
  Mg  Mg77  1  0.93548400  0.90042900  0.57857100  1
  Mg  Mg78  1  0.93548400  0.18737700  0.52118200  1
  Mg  Mg79  1  0.93548400  0.68737700  0.53596100  1
  Mg  Mg80  1  0.50000000  0.59172800  0.67857100  1
  Mg  Mg81  1  1.00000000  0.59172800  0.67857100  1
  Mg  Mg82  1  0.25000000  0.32161100  0.64064100  1
  Mg  Mg83  1  0.75000000  0.86184400  0.64064100  1
  Mg  Mg84  1  0.75000000  0.05149400  0.67857100  1
  Mg  Mg85  1  0.25000000  0.13196100  0.67857100  1
  Mg  Mg86  1  0.25000000  0.82161100  0.61650100  1
  Mg  Mg87  1  0.75000000  0.36184400  0.61650100  1
  Mg  Mg88  1  0.56451600  0.68737700  0.62118200  1
  Mg  Mg89  1  0.06451600  0.49607800  0.62118200  1
  Mg  Mg90  1  0.06451600  0.78302600  0.67857100  1
  Mg  Mg91  1  0.56451600  0.40042900  0.67857100  1
  Mg  Mg92  1  0.56451600  0.18737700  0.63596100  1
  Mg  Mg93  1  0.43548400  0.99607800  0.63596100  1
  Mg  Mg94  1  0.43548400  0.49607800  0.62118200  1
  Mg  Mg95  1  0.06451600  0.99607800  0.63596100  1
  Mg  Mg96  1  0.43548400  0.78302600  0.67857100  1
  Mg  Mg97  1  0.93548400  0.40042900  0.67857100  1
  Mg  Mg98  1  0.93548400  0.68737700  0.62118200  1
  Mg  Mg99  1  0.93548400  0.18737700  0.63596100  1
  Mg  Mg100  1  0.25000000  0.82161100  0.74064100  1
  Mg  Mg101  1  0.75000000  0.36184400  0.74064100  1
  Mg  Mg102  1  0.25000000  0.32161100  0.71650100  1
  Mg  Mg103  1  0.75000000  0.86184400  0.71650100  1
  Mg  Mg104  1  0.56451600  0.18737700  0.72118200  1
  Mg  Mg105  1  0.06451600  0.99607800  0.72118200  1
  Mg  Mg106  1  0.56451600  0.68737700  0.73596100  1
  Mg  Mg107  1  0.43548400  0.49607800  0.73596100  1
  Mg  Mg108  1  0.43548400  0.99607800  0.72118200  1
  Mg  Mg109  1  0.06451600  0.49607800  0.73596100  1
  Mg  Mg110  1  0.93548400  0.18737700  0.72118200  1
  Mg  Mg111  1  0.93548400  0.68737700  0.73596100  1
  Rh  Rh112  1  0.75000000  0.25839400  0.27857100  1
  Rh  Rh113  1  0.25000000  0.92506100  0.27857100  1
  Rh  Rh114  1  0.25000000  0.65287900  0.24188000  1
  Rh  Rh115  1  0.75000000  0.53057600  0.24188000  1
  Rh  Rh116  1  0.75000000  0.71403100  0.27857100  1
  Rh  Rh117  1  0.25000000  0.46942400  0.27857100  1
  Rh  Rh118  1  0.25000000  0.15287900  0.21526200  1
  Rh  Rh119  1  0.75000000  0.03057600  0.21526200  1
  Rh  Rh120  1  0.75000000  0.75839400  0.37857100  1
  Rh  Rh121  1  0.25000000  0.42506100  0.37857100  1
  Rh  Rh122  1  0.25000000  0.15287900  0.34188000  1
  Rh  Rh123  1  0.75000000  0.03057600  0.34188000  1
  Rh  Rh124  1  0.75000000  0.21403100  0.37857100  1
  Rh  Rh125  1  0.25000000  0.96942400  0.37857100  1
  Rh  Rh126  1  0.25000000  0.65287900  0.31526200  1
  Rh  Rh127  1  0.75000000  0.53057600  0.31526200  1
  Rh  Rh128  1  0.75000000  0.25839400  0.47857100  1
  Rh  Rh129  1  0.25000000  0.92506100  0.47857100  1
  Rh  Rh130  1  0.25000000  0.65287900  0.44188000  1
  Rh  Rh131  1  0.75000000  0.53057600  0.44188000  1
  Rh  Rh132  1  0.75000000  0.71403100  0.47857100  1
  Rh  Rh133  1  0.25000000  0.46942400  0.47857100  1
  Rh  Rh134  1  0.25000000  0.15287900  0.41526200  1
  Rh  Rh135  1  0.75000000  0.03057600  0.41526200  1
  Rh  Rh136  1  0.75000000  0.75839400  0.57857100  1
  Rh  Rh137  1  0.25000000  0.42506100  0.57857100  1
  Rh  Rh138  1  0.25000000  0.15287900  0.54188000  1
  Rh  Rh139  1  0.75000000  0.03057600  0.54188000  1
  Rh  Rh140  1  0.75000000  0.21403100  0.57857100  1
  Rh  Rh141  1  0.25000000  0.96942400  0.57857100  1
  Rh  Rh142  1  0.25000000  0.65287900  0.51526200  1
  Rh  Rh143  1  0.75000000  0.53057600  0.51526200  1
  Rh  Rh144  1  0.75000000  0.25839400  0.67857100  1
  Rh  Rh145  1  0.25000000  0.92506100  0.67857100  1
  Rh  Rh146  1  0.25000000  0.65287900  0.64188000  1
  Rh  Rh147  1  0.75000000  0.53057600  0.64188000  1
  Rh  Rh148  1  0.75000000  0.71403100  0.67857100  1
  Rh  Rh149  1  0.25000000  0.46942400  0.67857100  1
  Rh  Rh150  1  0.25000000  0.15287900  0.61526200  1
  Rh  Rh151  1  0.75000000  0.03057600  0.61526200  1
  Rh  Rh152  1  0.25000000  0.15287900  0.74188000  1
  Rh  Rh153  1  0.75000000  0.03057600  0.74188000  1
  Rh  Rh154  1  0.25000000  0.65287900  0.71526200  1
  Rh  Rh155  1  0.75000000  0.53057600  0.71526200  1
