# generated using pymatgen
data_Nd2Mg
_symmetry_space_group_name_H-M   'P 1'
_cell_length_a   3.84469700
_cell_length_b   18.34695764
_cell_length_c   43.38189500
_cell_angle_alpha   95.69976072
_cell_angle_beta   90.00000000
_cell_angle_gamma   90.00000000
_symmetry_Int_Tables_number   1
_chemical_formula_structural   Nd2Mg
_chemical_formula_sum   'Nd40 Mg20'
_cell_volume   3044.96434749
_cell_formula_units_Z   20
loop_
 _symmetry_equiv_pos_site_id
 _symmetry_equiv_pos_as_xyz
  1  'x, y, z'
loop_
 _atom_site_type_symbol
 _atom_site_label
 _atom_site_symmetry_multiplicity
 _atom_site_fract_x
 _atom_site_fract_y
 _atom_site_fract_z
 _atom_site_occupancy
  Nd  Nd0  1  0.00000000  0.95507600  0.22963200  1
  Nd  Nd1  1  0.50000000  0.79632000  0.25231100  1
  Nd  Nd2  1  0.50000000  0.60742400  0.20786800  1
  Nd  Nd3  1  0.00000000  0.89118000  0.31018900  1
  Nd  Nd4  1  0.50000000  0.51757600  0.29213200  1
  Nd  Nd5  1  0.00000000  0.23382000  0.18981100  1
  Nd  Nd6  1  0.00000000  0.16992400  0.27036800  1
  Nd  Nd7  1  0.50000000  0.32868000  0.24768900  1
  Nd  Nd8  1  0.00000000  0.08007600  0.35463200  1
  Nd  Nd9  1  0.50000000  0.92132000  0.37731100  1
  Nd  Nd10  1  0.50000000  0.73242400  0.33286800  1
  Nd  Nd11  1  0.00000000  0.01618000  0.43518900  1
  Nd  Nd12  1  0.50000000  0.64257600  0.41713200  1
  Nd  Nd13  1  0.00000000  0.35882000  0.31481100  1
  Nd  Nd14  1  0.00000000  0.29492400  0.39536800  1
  Nd  Nd15  1  0.50000000  0.45368000  0.37268900  1
  Nd  Nd16  1  1.00000000  0.20507600  0.47963200  1
  Nd  Nd17  1  0.50000000  0.04632000  0.50231100  1
  Nd  Nd18  1  0.50000000  0.85742400  0.45786800  1
  Nd  Nd19  1  1.00000000  0.14118000  0.56018900  1
  Nd  Nd20  1  0.50000000  0.76757600  0.54213200  1
  Nd  Nd21  1  1.00000000  0.48382000  0.43981100  1
  Nd  Nd22  1  1.00000000  0.41992400  0.52036800  1
  Nd  Nd23  1  0.50000000  0.57868000  0.49768900  1
  Nd  Nd24  1  0.00000000  0.33007600  0.60463200  1
  Nd  Nd25  1  0.50000000  0.17132000  0.62731100  1
  Nd  Nd26  1  0.50000000  0.98242400  0.58286800  1
  Nd  Nd27  1  0.00000000  0.26618000  0.68518900  1
  Nd  Nd28  1  0.50000000  0.89257600  0.66713200  1
  Nd  Nd29  1  0.00000000  0.60882000  0.56481100  1
  Nd  Nd30  1  0.00000000  0.54492400  0.64536800  1
  Nd  Nd31  1  0.50000000  0.70368000  0.62268900  1
  Nd  Nd32  1  0.00000000  0.45507600  0.72963200  1
  Nd  Nd33  1  0.50000000  0.29632000  0.75231100  1
  Nd  Nd34  1  0.50000000  0.10742400  0.70786800  1
  Nd  Nd35  1  0.00000000  0.39118000  0.81018900  1
  Nd  Nd36  1  0.50000000  0.01757600  0.79213200  1
  Nd  Nd37  1  0.00000000  0.73382000  0.68981100  1
  Nd  Nd38  1  0.00000000  0.66992400  0.77036800  1
  Nd  Nd39  1  0.50000000  0.82868000  0.74768900  1
  Mg  Mg40  1  1.00000000  0.65537500  0.27244600  1
  Mg  Mg41  1  0.50000000  0.03212500  0.29005400  1
  Mg  Mg42  1  0.50000000  0.09287500  0.20994600  1
  Mg  Mg43  1  0.00000000  0.46962500  0.22755400  1
  Mg  Mg44  1  0.00000000  0.78037500  0.39744600  1
  Mg  Mg45  1  0.50000000  0.15712500  0.41505400  1
  Mg  Mg46  1  0.50000000  0.21787500  0.33494600  1
  Mg  Mg47  1  1.00000000  0.59462500  0.35255400  1
  Mg  Mg48  1  0.00000000  0.90537500  0.52244600  1
  Mg  Mg49  1  0.50000000  0.28212500  0.54005400  1
  Mg  Mg50  1  0.50000000  0.34287500  0.45994600  1
  Mg  Mg51  1  0.00000000  0.71962500  0.47755400  1
  Mg  Mg52  1  1.00000000  0.03037500  0.64744600  1
  Mg  Mg53  1  0.50000000  0.40712500  0.66505400  1
  Mg  Mg54  1  0.50000000  0.46787500  0.58494600  1
  Mg  Mg55  1  0.00000000  0.84462500  0.60255400  1
  Mg  Mg56  1  0.00000000  0.15537500  0.77244600  1
  Mg  Mg57  1  0.50000000  0.53212500  0.79005400  1
  Mg  Mg58  1  0.50000000  0.59287500  0.70994600  1
  Mg  Mg59  1  1.00000000  0.96962500  0.72755400  1
