# generated using pymatgen
data_Li2Mg
_symmetry_space_group_name_H-M   'P 1'
_cell_length_a   3.13055700
_cell_length_b   7.90883712
_cell_length_c   40.29432900
_cell_angle_alpha   93.23388395
_cell_angle_beta   90.00000000
_cell_angle_gamma   101.41506403
_symmetry_Int_Tables_number   1
_chemical_formula_structural   Li2Mg
_chemical_formula_sum   'Li20 Mg10'
_cell_volume   976.29479394
_cell_formula_units_Z   10
loop_
 _symmetry_equiv_pos_site_id
 _symmetry_equiv_pos_as_xyz
  1  'x, y, z'
loop_
 _atom_site_type_symbol
 _atom_site_label
 _atom_site_symmetry_multiplicity
 _atom_site_fract_x
 _atom_site_fract_y
 _atom_site_fract_z
 _atom_site_occupancy
  Li  Li0  1  0.11290500  0.22581000  0.71797500  1
  Li  Li1  1  0.26209500  0.52419000  0.78202500  1
  Li  Li2  1  0.92540500  0.85081000  0.78047500  1
  Li  Li3  1  0.44959500  0.89919000  0.71952500  1
  Li  Li4  1  0.48790500  0.97581000  0.59297500  1
  Li  Li5  1  0.63709500  0.27419000  0.65702500  1
  Li  Li6  1  0.30040500  0.60081000  0.65547500  1
  Li  Li7  1  0.82459500  0.64919000  0.59452500  1
  Li  Li8  1  0.86290500  0.72581000  0.46797500  1
  Li  Li9  1  0.01209500  0.02419000  0.53202500  1
  Li  Li10  1  0.67540500  0.35081000  0.53047500  1
  Li  Li11  1  0.19959500  0.39919000  0.46952500  1
  Li  Li12  1  0.23790500  0.47581000  0.34297500  1
  Li  Li13  1  0.38709500  0.77419000  0.40702500  1
  Li  Li14  1  0.05040500  0.10081000  0.40547500  1
  Li  Li15  1  0.57459500  0.14919000  0.34452500  1
  Li  Li16  1  0.61290500  0.22581000  0.21797500  1
  Li  Li17  1  0.76209500  0.52419000  0.28202500  1
  Li  Li18  1  0.42540500  0.85081000  0.28047500  1
  Li  Li19  1  0.94959500  0.89919000  0.21952500  1
  Mg  Mg20  1  0.78125000  0.56250000  0.71875000  1
  Mg  Mg21  1  0.59375000  0.18750000  0.78125000  1
  Mg  Mg22  1  0.15625000  0.31250000  0.59375000  1
  Mg  Mg23  1  0.96875000  0.93750000  0.65625000  1
  Mg  Mg24  1  0.53125000  0.06250000  0.46875000  1
  Mg  Mg25  1  0.34375000  0.68750000  0.53125000  1
  Mg  Mg26  1  0.90625000  0.81250000  0.34375000  1
  Mg  Mg27  1  0.71875000  0.43750000  0.40625000  1
  Mg  Mg28  1  0.28125000  0.56250000  0.21875000  1
  Mg  Mg29  1  0.09375000  0.18750000  0.28125000  1
