# generated using pymatgen
data_Mg23Ga21
_symmetry_space_group_name_H-M   'P 1'
_cell_length_a   8.03816789
_cell_length_b   8.03816859
_cell_length_c   49.15939500
_cell_angle_alpha   88.74412318
_cell_angle_beta   88.74412307
_cell_angle_gamma   83.19111861
_symmetry_Int_Tables_number   1
_chemical_formula_structural   Mg23Ga21
_chemical_formula_sum   'Mg46 Ga42'
_cell_volume   3152.53743401
_cell_formula_units_Z   2
loop_
 _symmetry_equiv_pos_site_id
 _symmetry_equiv_pos_as_xyz
  1  'x, y, z'
loop_
 _atom_site_type_symbol
 _atom_site_label
 _atom_site_symmetry_multiplicity
 _atom_site_fract_x
 _atom_site_fract_y
 _atom_site_fract_z
 _atom_site_occupancy
  Mg  Mg0  1  0.84570700  0.70027600  0.75249800  1
  Mg  Mg1  1  0.16184200  0.89759500  0.77844200  1
  Mg  Mg2  1  0.78125100  0.04549800  0.79298500  1
  Mg  Mg3  1  0.91167400  0.05710400  0.72607400  1
  Mg  Mg4  1  0.28856300  0.14313200  0.72392600  1
  Mg  Mg5  1  0.61898600  0.35473900  0.75701500  1
  Mg  Mg6  1  0.23839500  0.50264200  0.77155800  1
  Mg  Mg7  1  0.55453000  0.69996000  0.79750200  1
  Mg  Mg8  1  0.64570700  0.50027600  0.65249800  1
  Mg  Mg9  1  0.96184200  0.69759500  0.67844200  1
  Mg  Mg10  1  0.58125100  0.84549800  0.69298500  1
  Mg  Mg11  1  0.71167400  0.85710400  0.62607400  1
  Mg  Mg12  1  0.08856300  0.94313200  0.62392600  1
  Mg  Mg13  1  0.41898600  0.15473900  0.65701500  1
  Mg  Mg14  1  0.03839500  0.30264200  0.67155800  1
  Mg  Mg15  1  0.35453000  0.49996000  0.69750200  1
  Mg  Mg16  1  0.44570700  0.30027600  0.55249800  1
  Mg  Mg17  1  0.76184200  0.49759500  0.57844200  1
  Mg  Mg18  1  0.38125100  0.64549800  0.59298500  1
  Mg  Mg19  1  0.51167400  0.65710400  0.52607400  1
  Mg  Mg20  1  0.88856300  0.74313200  0.52392600  1
  Mg  Mg21  1  0.21898600  0.95473900  0.55701500  1
  Mg  Mg22  1  0.83839500  0.10264200  0.57155800  1
  Mg  Mg23  1  0.15453000  0.29996000  0.59750200  1
  Mg  Mg24  1  0.24570700  0.10027600  0.45249800  1
  Mg  Mg25  1  0.56184200  0.29759500  0.47844200  1
  Mg  Mg26  1  0.18125100  0.44549800  0.49298500  1
  Mg  Mg27  1  0.31167400  0.45710400  0.42607400  1
  Mg  Mg28  1  0.68856300  0.54313200  0.42392600  1
  Mg  Mg29  1  0.01898600  0.75473900  0.45701500  1
  Mg  Mg30  1  0.63839500  0.90264200  0.47155800  1
  Mg  Mg31  1  0.95453000  0.09996000  0.49750200  1
  Mg  Mg32  1  0.04570700  0.90027600  0.35249800  1
  Mg  Mg33  1  0.36184200  0.09759500  0.37844200  1
  Mg  Mg34  1  0.98125100  0.24549800  0.39298500  1
  Mg  Mg35  1  0.11167400  0.25710400  0.32607400  1
  Mg  Mg36  1  0.48856300  0.34313200  0.32392600  1
  Mg  Mg37  1  0.81898600  0.55473900  0.35701500  1
  Mg  Mg38  1  0.43839500  0.70264200  0.37155800  1
  Mg  Mg39  1  0.75453000  0.89996000  0.39750200  1
  Mg  Mg40  1  0.84570700  0.70027600  0.25249800  1
  Mg  Mg41  1  0.16184200  0.89759500  0.27844200  1
  Mg  Mg42  1  0.78125100  0.04549800  0.29298500  1
  Mg  Mg43  1  0.61898600  0.35473900  0.25701500  1
  Mg  Mg44  1  0.23839500  0.50264200  0.27155800  1
  Mg  Mg45  1  0.55453000  0.69996000  0.29750200  1
  Ga  Ga46  1  0.47594600  0.68995400  0.74204500  1
  Ga  Ga47  1  0.15830100  0.76082000  0.72621900  1
  Ga  Ga48  1  0.58961300  0.98709500  0.74762000  1
  Ga  Ga49  1  0.37196900  0.15796100  0.78179400  1
  Ga  Ga50  1  0.02826800  0.24227600  0.76820600  1
  Ga  Ga51  1  0.61062300  0.21314200  0.70238000  1
  Ga  Ga52  1  0.04193500  0.43941700  0.72378100  1
  Ga  Ga53  1  0.72429100  0.51028300  0.70795500  1
  Ga  Ga54  1  0.27594600  0.48995400  0.64204500  1
  Ga  Ga55  1  0.95830100  0.56082000  0.62621900  1
  Ga  Ga56  1  0.38961300  0.78709500  0.64762000  1
  Ga  Ga57  1  0.17196900  0.95796100  0.68179400  1
  Ga  Ga58  1  0.82826800  0.04227600  0.66820600  1
  Ga  Ga59  1  0.41062300  0.01314200  0.60238000  1
  Ga  Ga60  1  0.84193500  0.23941700  0.62378100  1
  Ga  Ga61  1  0.52429100  0.31028300  0.60795500  1
  Ga  Ga62  1  0.07594600  0.28995400  0.54204500  1
  Ga  Ga63  1  0.75830100  0.36082000  0.52621900  1
  Ga  Ga64  1  0.18961300  0.58709500  0.54762000  1
  Ga  Ga65  1  0.97196900  0.75796100  0.58179400  1
  Ga  Ga66  1  0.62826800  0.84227600  0.56820600  1
  Ga  Ga67  1  0.21062300  0.81314200  0.50238000  1
  Ga  Ga68  1  0.64193500  0.03941700  0.52378100  1
  Ga  Ga69  1  0.32429100  0.11028300  0.50795500  1
  Ga  Ga70  1  0.87594600  0.08995400  0.44204500  1
  Ga  Ga71  1  0.55830100  0.16082000  0.42621900  1
  Ga  Ga72  1  0.98961300  0.38709500  0.44762000  1
  Ga  Ga73  1  0.77196900  0.55796100  0.48179400  1
  Ga  Ga74  1  0.42826800  0.64227600  0.46820600  1
  Ga  Ga75  1  0.01062300  0.61314200  0.40238000  1
  Ga  Ga76  1  0.44193500  0.83941700  0.42378100  1
  Ga  Ga77  1  0.12429100  0.91028300  0.40795500  1
  Ga  Ga78  1  0.67594600  0.88995400  0.34204500  1
  Ga  Ga79  1  0.35830100  0.96082000  0.32621900  1
  Ga  Ga80  1  0.78961300  0.18709500  0.34762000  1
  Ga  Ga81  1  0.57196900  0.35796100  0.38179400  1
  Ga  Ga82  1  0.22826800  0.44227600  0.36820600  1
  Ga  Ga83  1  0.81062300  0.41314200  0.30238000  1
  Ga  Ga84  1  0.24193500  0.63941700  0.32378100  1
  Ga  Ga85  1  0.92429100  0.71028300  0.30795500  1
  Ga  Ga86  1  0.37196900  0.15796100  0.28179400  1
  Ga  Ga87  1  0.02826800  0.24227600  0.26820600  1
