# generated using pymatgen
data_MgB2
_symmetry_space_group_name_H-M   'P 1'
_cell_length_a   3.49509400
_cell_length_b   5.34638494
_cell_length_c   41.75660500
_cell_angle_alpha   86.32950589
_cell_angle_beta   90.00000000
_cell_angle_gamma   90.00000000
_symmetry_Int_Tables_number   1
_chemical_formula_structural   MgB2
_chemical_formula_sum   'Mg17 B34'
_cell_volume   778.66829423
_cell_formula_units_Z   17
loop_
 _symmetry_equiv_pos_site_id
 _symmetry_equiv_pos_as_xyz
  1  'x, y, z'
loop_
 _atom_site_type_symbol
 _atom_site_label
 _atom_site_symmetry_multiplicity
 _atom_site_fract_x
 _atom_site_fract_y
 _atom_site_fract_z
 _atom_site_occupancy
  Mg  Mg0  1  0.00000000  0.74074100  0.20370400  1
  Mg  Mg1  1  0.00000000  0.22222200  0.24074100  1
  Mg  Mg2  1  0.00000000  0.70370400  0.27777800  1
  Mg  Mg3  1  1.00000000  0.18518500  0.31481500  1
  Mg  Mg4  1  0.00000000  0.66666700  0.35185200  1
  Mg  Mg5  1  0.00000000  0.14814800  0.38888900  1
  Mg  Mg6  1  0.00000000  0.62963000  0.42592600  1
  Mg  Mg7  1  1.00000000  0.11111100  0.46296300  1
  Mg  Mg8  1  0.00000000  0.59259300  0.50000000  1
  Mg  Mg9  1  0.00000000  0.07407400  0.53703700  1
  Mg  Mg10  1  0.00000000  0.55555600  0.57407400  1
  Mg  Mg11  1  0.00000000  0.03703700  0.61111100  1
  Mg  Mg12  1  0.00000000  0.51851900  0.64814800  1
  Mg  Mg13  1  0.00000000  0.00000000  0.68518500  1
  Mg  Mg14  1  0.00000000  0.48148100  0.72222200  1
  Mg  Mg15  1  1.00000000  0.96296300  0.75925900  1
  Mg  Mg16  1  0.00000000  0.44444400  0.79629600  1
  B  B17  1  0.50000000  0.07407400  0.20370400  1
  B  B18  1  0.50000000  0.40740700  0.20370400  1
  B  B19  1  0.50000000  0.55555600  0.24074100  1
  B  B20  1  0.50000000  0.88888900  0.24074100  1
  B  B21  1  0.50000000  0.03703700  0.27777800  1
  B  B22  1  0.50000000  0.37037000  0.27777800  1
  B  B23  1  0.50000000  0.51851900  0.31481500  1
  B  B24  1  0.50000000  0.85185200  0.31481500  1
  B  B25  1  0.50000000  0.00000000  0.35185200  1
  B  B26  1  0.50000000  0.33333300  0.35185200  1
  B  B27  1  0.50000000  0.48148100  0.38888900  1
  B  B28  1  0.50000000  0.81481500  0.38888900  1
  B  B29  1  0.50000000  0.96296300  0.42592600  1
  B  B30  1  0.50000000  0.29629600  0.42592600  1
  B  B31  1  0.50000000  0.44444400  0.46296300  1
  B  B32  1  0.50000000  0.77777800  0.46296300  1
  B  B33  1  0.50000000  0.92592600  0.50000000  1
  B  B34  1  0.50000000  0.25925900  0.50000000  1
  B  B35  1  0.50000000  0.40740700  0.53703700  1
  B  B36  1  0.50000000  0.74074100  0.53703700  1
  B  B37  1  0.50000000  0.88888900  0.57407400  1
  B  B38  1  0.50000000  0.22222200  0.57407400  1
  B  B39  1  0.50000000  0.37037000  0.61111100  1
  B  B40  1  0.50000000  0.70370400  0.61111100  1
  B  B41  1  0.50000000  0.85185200  0.64814800  1
  B  B42  1  0.50000000  0.18518500  0.64814800  1
  B  B43  1  0.50000000  0.33333300  0.68518500  1
  B  B44  1  0.50000000  0.66666700  0.68518500  1
  B  B45  1  0.50000000  0.81481500  0.72222200  1
  B  B46  1  0.50000000  0.14814800  0.72222200  1
  B  B47  1  0.50000000  0.29629600  0.75925900  1
  B  B48  1  0.50000000  0.62963000  0.75925900  1
  B  B49  1  0.50000000  0.77777800  0.79629600  1
  B  B50  1  0.50000000  0.11111100  0.79629600  1
