# generated using pymatgen
data_Ho2Mg
_symmetry_space_group_name_H-M   'P 1'
_cell_length_a   6.57379833
_cell_length_b   8.73039199
_cell_length_c   45.09759300
_cell_angle_alpha   88.72763184
_cell_angle_beta   86.05613363
_cell_angle_gamma   83.24796383
_symmetry_Int_Tables_number   1
_chemical_formula_structural   Ho2Mg
_chemical_formula_sum   'Ho36 Mg18'
_cell_volume   2563.93535839
_cell_formula_units_Z   18
loop_
 _symmetry_equiv_pos_site_id
 _symmetry_equiv_pos_as_xyz
  1  'x, y, z'
loop_
 _atom_site_type_symbol
 _atom_site_label
 _atom_site_symmetry_multiplicity
 _atom_site_fract_x
 _atom_site_fract_y
 _atom_site_fract_z
 _atom_site_occupancy
  Ho  Ho0  1  0.96900700  0.42975700  0.75619900  1
  Ho  Ho1  1  0.07577700  0.81049400  0.73484500  1
  Ho  Ho2  1  0.36432600  0.03690900  0.77713500  1
  Ho  Ho3  1  0.25755600  0.65617200  0.79848900  1
  Ho  Ho4  1  0.30234100  0.49642400  0.68953200  1
  Ho  Ho5  1  0.40911000  0.87716100  0.66817800  1
  Ho  Ho6  1  0.69765900  0.10357600  0.71046800  1
  Ho  Ho7  1  0.59089000  0.72283900  0.73182200  1
  Ho  Ho8  1  0.63567400  0.56309100  0.62286500  1
  Ho  Ho9  1  0.74244400  0.94382800  0.60151100  1
  Ho  Ho10  1  0.03099300  0.17024300  0.64380100  1
  Ho  Ho11  1  0.92422300  0.78950600  0.66515500  1
  Ho  Ho12  1  0.96900700  0.62975700  0.55619900  1
  Ho  Ho13  1  0.07577700  0.01049400  0.53484500  1
  Ho  Ho14  1  0.36432600  0.23690900  0.57713500  1
  Ho  Ho15  1  0.25755600  0.85617200  0.59848900  1
  Ho  Ho16  1  0.30234100  0.69642400  0.48953200  1
  Ho  Ho17  1  0.40911000  0.07716100  0.46817800  1
  Ho  Ho18  1  0.69765900  0.30357600  0.51046800  1
  Ho  Ho19  1  0.59089000  0.92283900  0.53182200  1
  Ho  Ho20  1  0.63567400  0.76309100  0.42286500  1
  Ho  Ho21  1  0.74244400  0.14382800  0.40151100  1
  Ho  Ho22  1  0.03099300  0.37024300  0.44380100  1
  Ho  Ho23  1  0.92422300  0.98950600  0.46515500  1
  Ho  Ho24  1  0.96900700  0.82975700  0.35619900  1
  Ho  Ho25  1  0.07577700  0.21049400  0.33484500  1
  Ho  Ho26  1  0.36432600  0.43690900  0.37713500  1
  Ho  Ho27  1  0.25755600  0.05617200  0.39848900  1
  Ho  Ho28  1  0.30234100  0.89642400  0.28953200  1
  Ho  Ho29  1  0.40911000  0.27716100  0.26817800  1
  Ho  Ho30  1  0.69765900  0.50357600  0.31046800  1
  Ho  Ho31  1  0.59089000  0.12283900  0.33182200  1
  Ho  Ho32  1  0.63567400  0.96309100  0.22286500  1
  Ho  Ho33  1  0.74244400  0.34382800  0.20151100  1
  Ho  Ho34  1  0.03099300  0.57024300  0.24380100  1
  Ho  Ho35  1  0.92422300  0.18950600  0.26515500  1
  Mg  Mg36  1  0.85539400  0.08871600  0.77892100  1
  Mg  Mg37  1  0.47794000  0.37795100  0.75441200  1
  Mg  Mg38  1  0.18872700  0.15538300  0.71225500  1
  Mg  Mg39  1  0.81127300  0.44461700  0.68774500  1
  Mg  Mg40  1  0.52206000  0.22204900  0.64558800  1
  Mg  Mg41  1  0.14460600  0.51128400  0.62107900  1
  Mg  Mg42  1  0.85539400  0.28871600  0.57892100  1
  Mg  Mg43  1  0.47794000  0.57795100  0.55441200  1
  Mg  Mg44  1  0.18872700  0.35538300  0.51225500  1
  Mg  Mg45  1  0.81127300  0.64461700  0.48774500  1
  Mg  Mg46  1  0.52206000  0.42204900  0.44558800  1
  Mg  Mg47  1  0.14460600  0.71128400  0.42107900  1
  Mg  Mg48  1  0.85539400  0.48871600  0.37892100  1
  Mg  Mg49  1  0.47794000  0.77795100  0.35441200  1
  Mg  Mg50  1  0.18872700  0.55538300  0.31225500  1
  Mg  Mg51  1  0.81127300  0.84461700  0.28774500  1
  Mg  Mg52  1  0.52206000  0.62204900  0.24558800  1
  Mg  Mg53  1  0.14460600  0.91128400  0.22107900  1
