# generated using pymatgen
data_Mg19Pd8
_symmetry_space_group_name_H-M   'P 1'
_cell_length_a   8.83883700
_cell_length_b   8.02302000
_cell_length_c   45.92794300
_cell_angle_alpha   90.00000000
_cell_angle_beta   90.00000000
_cell_angle_gamma   90.00000000
_symmetry_Int_Tables_number   1
_chemical_formula_structural   Mg19Pd8
_chemical_formula_sum   'Mg76 Pd32'
_cell_volume   3256.94177521
_cell_formula_units_Z   4
loop_
 _symmetry_equiv_pos_site_id
 _symmetry_equiv_pos_as_xyz
  1  'x, y, z'
loop_
 _atom_site_type_symbol
 _atom_site_label
 _atom_site_symmetry_multiplicity
 _atom_site_fract_x
 _atom_site_fract_y
 _atom_site_fract_z
 _atom_site_occupancy
  Mg  Mg0  1  0.42370400  0.93540600  0.22998000  1
  Mg  Mg1  1  0.71102900  0.93540600  0.32575500  1
  Mg  Mg2  1  0.99835400  0.93540600  0.22998000  1
  Mg  Mg3  1  0.99835400  0.06459400  0.29383000  1
  Mg  Mg4  1  0.71102900  0.06459400  0.19805500  1
  Mg  Mg5  1  0.42370400  0.06459400  0.29383000  1
  Mg  Mg6  1  0.99835400  0.43540600  0.29383000  1
  Mg  Mg7  1  0.71102900  0.43540600  0.19805500  1
  Mg  Mg8  1  0.42370400  0.43540600  0.29383000  1
  Mg  Mg9  1  0.42370400  0.56459400  0.22998000  1
  Mg  Mg10  1  0.71102900  0.56459400  0.32575500  1
  Mg  Mg11  1  0.99835400  0.56459400  0.22998000  1
  Mg  Mg12  1  0.21102900  0.75000000  0.27489900  1
  Mg  Mg13  1  0.21102900  0.25000000  0.24891000  1
  Mg  Mg14  1  0.71102900  0.00000000  0.26190500  1
  Mg  Mg15  1  0.71102900  0.50000000  0.26190500  1
  Mg  Mg16  1  0.92370400  0.93540600  0.39664600  1
  Mg  Mg17  1  0.21102900  0.93540600  0.49242100  1
  Mg  Mg18  1  0.49835400  0.93540600  0.39664600  1
  Mg  Mg19  1  0.49835400  0.06459400  0.46049600  1
  Mg  Mg20  1  0.21102900  0.06459400  0.36472100  1
  Mg  Mg21  1  0.92370400  0.06459400  0.46049600  1
  Mg  Mg22  1  0.49835400  0.43540600  0.46049600  1
  Mg  Mg23  1  0.21102900  0.43540600  0.36472100  1
  Mg  Mg24  1  0.92370400  0.43540600  0.46049600  1
  Mg  Mg25  1  0.92370400  0.56459400  0.39664600  1
  Mg  Mg26  1  0.21102900  0.56459400  0.49242100  1
  Mg  Mg27  1  0.49835400  0.56459400  0.39664600  1
  Mg  Mg28  1  0.40255300  0.75000000  0.33874100  1
  Mg  Mg29  1  0.71102900  0.75000000  0.44156600  1
  Mg  Mg30  1  0.01950500  0.75000000  0.33874100  1
  Mg  Mg31  1  0.51950500  0.25000000  0.35173500  1
  Mg  Mg32  1  0.71102900  0.25000000  0.41557700  1
  Mg  Mg33  1  0.90255300  0.25000000  0.35173500  1
  Mg  Mg34  1  0.21102900  0.00000000  0.42857100  1
  Mg  Mg35  1  0.21102900  0.50000000  0.42857100  1
  Mg  Mg36  1  0.42370400  0.93540600  0.56331300  1
  Mg  Mg37  1  0.71102900  0.93540600  0.65908800  1
  Mg  Mg38  1  0.99835400  0.93540600  0.56331300  1
  Mg  Mg39  1  0.99835400  0.06459400  0.62716300  1
  Mg  Mg40  1  0.71102900  0.06459400  0.53138800  1
  Mg  Mg41  1  0.42370400  0.06459400  0.62716300  1
  Mg  Mg42  1  0.99835400  0.43540600  0.62716300  1
  Mg  Mg43  1  0.71102900  0.43540600  0.53138800  1
  Mg  Mg44  1  0.42370400  0.43540600  0.62716300  1
  Mg  Mg45  1  0.42370400  0.56459400  0.56331300  1
  Mg  Mg46  1  0.71102900  0.56459400  0.65908800  1
  Mg  Mg47  1  0.99835400  0.56459400  0.56331300  1
  Mg  Mg48  1  0.90255300  0.75000000  0.50540700  1
  Mg  Mg49  1  0.21102900  0.75000000  0.60823300  1
  Mg  Mg50  1  0.51950500  0.75000000  0.50540700  1
  Mg  Mg51  1  0.01950500  0.25000000  0.51840200  1
  Mg  Mg52  1  0.21102900  0.25000000  0.58224300  1
  Mg  Mg53  1  0.40255300  0.25000000  0.51840200  1
  Mg  Mg54  1  0.71102900  0.00000000  0.59523800  1
  Mg  Mg55  1  0.71102900  0.50000000  0.59523800  1
  Mg  Mg56  1  0.92370400  0.93540600  0.72998000  1
  Mg  Mg57  1  0.21102900  0.93540600  0.82575500  1
  Mg  Mg58  1  0.49835400  0.93540600  0.72998000  1
  Mg  Mg59  1  0.49835400  0.06459400  0.79383000  1
  Mg  Mg60  1  0.21102900  0.06459400  0.69805500  1
  Mg  Mg61  1  0.92370400  0.06459400  0.79383000  1
  Mg  Mg62  1  0.49835400  0.43540600  0.79383000  1
  Mg  Mg63  1  0.21102900  0.43540600  0.69805500  1
  Mg  Mg64  1  0.92370400  0.43540600  0.79383000  1
  Mg  Mg65  1  0.92370400  0.56459400  0.72998000  1
  Mg  Mg66  1  0.21102900  0.56459400  0.82575500  1
  Mg  Mg67  1  0.49835400  0.56459400  0.72998000  1
  Mg  Mg68  1  0.40255300  0.75000000  0.67207400  1
  Mg  Mg69  1  0.71102900  0.75000000  0.77489900  1
  Mg  Mg70  1  0.01950500  0.75000000  0.67207400  1
  Mg  Mg71  1  0.51950500  0.25000000  0.68506900  1
  Mg  Mg72  1  0.71102900  0.25000000  0.74891000  1
  Mg  Mg73  1  0.90255300  0.25000000  0.68506900  1
  Mg  Mg74  1  0.21102900  0.00000000  0.76190500  1
  Mg  Mg75  1  0.21102900  0.50000000  0.76190500  1
  Pd  Pd76  1  0.89789400  0.75000000  0.28266800  1
  Pd  Pd77  1  0.71102900  0.75000000  0.22037900  1
  Pd  Pd78  1  0.52416400  0.75000000  0.28266800  1
  Pd  Pd79  1  0.52416400  0.25000000  0.24114200  1
  Pd  Pd80  1  0.71102900  0.25000000  0.30343000  1
  Pd  Pd81  1  0.89789400  0.25000000  0.24114200  1
  Pd  Pd82  1  0.21102900  0.75000000  0.20634900  1
  Pd  Pd83  1  0.21102900  0.25000000  0.31746000  1
  Pd  Pd84  1  0.39789400  0.75000000  0.44933400  1
  Pd  Pd85  1  0.21102900  0.75000000  0.38704600  1
  Pd  Pd86  1  0.02416400  0.75000000  0.44933400  1
  Pd  Pd87  1  0.02416400  0.25000000  0.40780900  1
  Pd  Pd88  1  0.21102900  0.25000000  0.47009700  1
  Pd  Pd89  1  0.39789400  0.25000000  0.40780900  1
  Pd  Pd90  1  0.71102900  0.75000000  0.37301600  1
  Pd  Pd91  1  0.71102900  0.25000000  0.48412700  1
  Pd  Pd92  1  0.89789400  0.75000000  0.61600100  1
  Pd  Pd93  1  0.71102900  0.75000000  0.55371300  1
  Pd  Pd94  1  0.52416400  0.75000000  0.61600100  1
  Pd  Pd95  1  0.52416400  0.25000000  0.57447500  1
  Pd  Pd96  1  0.71102900  0.25000000  0.63676400  1
  Pd  Pd97  1  0.89789400  0.25000000  0.57447500  1
  Pd  Pd98  1  0.21102900  0.75000000  0.53968300  1
  Pd  Pd99  1  0.21102900  0.25000000  0.65079400  1
  Pd  Pd100  1  0.39789400  0.75000000  0.78266800  1
  Pd  Pd101  1  0.21102900  0.75000000  0.72037900  1
  Pd  Pd102  1  0.02416400  0.75000000  0.78266800  1
  Pd  Pd103  1  0.02416400  0.25000000  0.74114200  1
  Pd  Pd104  1  0.21102900  0.25000000  0.80343000  1
  Pd  Pd105  1  0.39789400  0.25000000  0.74114200  1
  Pd  Pd106  1  0.71102900  0.75000000  0.70634900  1
  Pd  Pd107  1  0.71102900  0.25000000  0.81746000  1
