# generated using pymatgen
data_Er11Mg4
_symmetry_space_group_name_H-M   'P 1'
_cell_length_a   3.53257600
_cell_length_b   9.26954700
_cell_length_c   45.92348800
_cell_angle_alpha   90.00000000
_cell_angle_beta   90.00000000
_cell_angle_gamma   90.00000000
_symmetry_Int_Tables_number   1
_chemical_formula_structural   Er11Mg4
_chemical_formula_sum   'Er22 Mg8'
_cell_volume   1503.78203164
_cell_formula_units_Z   2
loop_
 _symmetry_equiv_pos_site_id
 _symmetry_equiv_pos_as_xyz
  1  'x, y, z'
loop_
 _atom_site_type_symbol
 _atom_site_label
 _atom_site_symmetry_multiplicity
 _atom_site_fract_x
 _atom_site_fract_y
 _atom_site_fract_z
 _atom_site_occupancy
  Er  Er0  1  0.00000000  0.50000000  0.25000000  1
  Er  Er1  1  0.50000000  0.75928100  0.28846200  1
  Er  Er2  1  1.00000000  0.50000000  0.32692300  1
  Er  Er3  1  0.50000000  0.24071900  0.28846200  1
  Er  Er4  1  0.50000000  0.75928100  0.36538500  1
  Er  Er5  1  0.00000000  0.50000000  0.40384600  1
  Er  Er6  1  0.50000000  0.24071900  0.36538500  1
  Er  Er7  1  0.50000000  0.75928100  0.44230800  1
  Er  Er8  1  0.00000000  0.50000000  0.48076900  1
  Er  Er9  1  0.50000000  0.24071900  0.44230800  1
  Er  Er10  1  0.50000000  0.75928100  0.51923100  1
  Er  Er11  1  0.00000000  0.50000000  0.55769200  1
  Er  Er12  1  0.50000000  0.24071900  0.51923100  1
  Er  Er13  1  0.50000000  0.75928100  0.59615400  1
  Er  Er14  1  0.00000000  0.50000000  0.63461500  1
  Er  Er15  1  0.50000000  0.24071900  0.59615400  1
  Er  Er16  1  0.50000000  0.75928100  0.67307700  1
  Er  Er17  1  0.00000000  0.50000000  0.71153800  1
  Er  Er18  1  0.50000000  0.24071900  0.67307700  1
  Er  Er19  1  0.50000000  0.75928100  0.75000000  1
  Er  Er20  1  0.00000000  0.50000000  0.78846200  1
  Er  Er21  1  0.50000000  0.24071900  0.75000000  1
  Mg  Mg22  1  0.00000000  0.00000000  0.25000000  1
  Mg  Mg23  1  0.00000000  0.00000000  0.32692300  1
  Mg  Mg24  1  0.00000000  0.00000000  0.40384600  1
  Mg  Mg25  1  0.00000000  0.00000000  0.48076900  1
  Mg  Mg26  1  0.00000000  0.00000000  0.55769200  1
  Mg  Mg27  1  0.00000000  0.00000000  0.63461500  1
  Mg  Mg28  1  0.00000000  0.00000000  0.71153800  1
  Mg  Mg29  1  0.00000000  0.00000000  0.78846200  1
