# generated using pymatgen
data_MgAg2
_symmetry_space_group_name_H-M   'P 1'
_cell_length_a   7.04186209
_cell_length_b   8.88411000
_cell_length_c   45.76538200
_cell_angle_alpha   90.00000000
_cell_angle_beta   87.90494982
_cell_angle_gamma   90.00000000
_symmetry_Int_Tables_number   1
_chemical_formula_structural   MgAg2
_chemical_formula_sum   'Mg32 Ag64'
_cell_volume   2861.19946924
_cell_formula_units_Z   32
loop_
 _symmetry_equiv_pos_site_id
 _symmetry_equiv_pos_as_xyz
  1  'x, y, z'
loop_
 _atom_site_type_symbol
 _atom_site_label
 _atom_site_symmetry_multiplicity
 _atom_site_fract_x
 _atom_site_fract_y
 _atom_site_fract_z
 _atom_site_occupancy
  Mg  Mg0  1  0.45207000  0.00000000  0.23486900  1
  Mg  Mg1  1  0.00946900  0.00000000  0.22666900  1
  Mg  Mg2  1  0.72130100  0.50000000  0.19640800  1
  Mg  Mg3  1  0.74023800  0.50000000  0.26513100  1
  Mg  Mg4  1  0.91360800  0.00000000  0.31179200  1
  Mg  Mg5  1  0.47100700  0.00000000  0.30359200  1
  Mg  Mg6  1  0.18283900  0.50000000  0.27333100  1
  Mg  Mg7  1  0.20177600  0.50000000  0.34205400  1
  Mg  Mg8  1  0.37514700  0.00000000  0.38871500  1
  Mg  Mg9  1  0.93254500  0.00000000  0.38051500  1
  Mg  Mg10  1  0.64437800  0.50000000  0.35025400  1
  Mg  Mg11  1  0.66331500  0.50000000  0.41897700  1
  Mg  Mg12  1  0.83668500  0.00000000  0.46563800  1
  Mg  Mg13  1  0.39408400  0.00000000  0.45743900  1
  Mg  Mg14  1  0.10591600  0.50000000  0.42717700  1
  Mg  Mg15  1  0.12485300  0.50000000  0.49590000  1
  Mg  Mg16  1  0.29822400  0.00000000  0.54256100  1
  Mg  Mg17  1  0.85562200  0.00000000  0.53436200  1
  Mg  Mg18  1  0.56745500  0.50000000  0.50410000  1
  Mg  Mg19  1  0.58639200  0.50000000  0.57282300  1
  Mg  Mg20  1  0.75976200  0.00000000  0.61948500  1
  Mg  Mg21  1  0.31716100  0.00000000  0.61128500  1
  Mg  Mg22  1  0.02899300  0.50000000  0.58102300  1
  Mg  Mg23  1  0.04793000  0.50000000  0.64974600  1
  Mg  Mg24  1  0.22130100  0.00000000  0.69640800  1
  Mg  Mg25  1  0.77869900  0.00000000  0.68820800  1
  Mg  Mg26  1  0.49053100  0.50000000  0.65794600  1
  Mg  Mg27  1  0.50946900  0.50000000  0.72666900  1
  Mg  Mg28  1  0.68283900  0.00000000  0.77333100  1
  Mg  Mg29  1  0.24023800  0.00000000  0.76513100  1
  Mg  Mg30  1  0.95207000  0.50000000  0.73486900  1
  Mg  Mg31  1  0.97100700  0.50000000  0.80359200  1
  Ag  Ag32  1  0.01562700  0.33353600  0.22579000  1
  Ag  Ag33  1  0.44591200  0.33353600  0.23574900  1
  Ag  Ag34  1  0.71514200  0.16646400  0.19728700  1
  Ag  Ag35  1  0.74639600  0.16646400  0.26425100  1
  Ag  Ag36  1  0.74639600  0.83353600  0.26425100  1
  Ag  Ag37  1  0.71514200  0.83353600  0.19728700  1
  Ag  Ag38  1  0.44591200  0.66646400  0.23574900  1
  Ag  Ag39  1  0.01562700  0.66646400  0.22579000  1
  Ag  Ag40  1  0.47716500  0.33353600  0.30271300  1
  Ag  Ag41  1  0.90745000  0.33353600  0.31267200  1
  Ag  Ag42  1  0.17668100  0.16646400  0.27421000  1
  Ag  Ag43  1  0.20793500  0.16646400  0.34117400  1
  Ag  Ag44  1  0.20793500  0.83353600  0.34117400  1
  Ag  Ag45  1  0.17668100  0.83353600  0.27421000  1
  Ag  Ag46  1  0.90745000  0.66646400  0.31267200  1
  Ag  Ag47  1  0.47716500  0.66646400  0.30271300  1
  Ag  Ag48  1  0.93870400  0.33353600  0.37963600  1
  Ag  Ag49  1  0.36898900  0.33353600  0.38959500  1
  Ag  Ag50  1  0.63821900  0.16646400  0.35113400  1
  Ag  Ag51  1  0.66947300  0.16646400  0.41809700  1
  Ag  Ag52  1  0.66947300  0.83353600  0.41809700  1
  Ag  Ag53  1  0.63821900  0.83353600  0.35113400  1
  Ag  Ag54  1  0.36898900  0.66646400  0.38959500  1
  Ag  Ag55  1  0.93870400  0.66646400  0.37963600  1
  Ag  Ag56  1  0.40024200  0.33353600  0.45655900  1
  Ag  Ag57  1  0.83052700  0.33353600  0.46651800  1
  Ag  Ag58  1  0.09975800  0.16646400  0.42805700  1
  Ag  Ag59  1  0.13101100  0.16646400  0.49502000  1
  Ag  Ag60  1  0.13101100  0.83353600  0.49502000  1
  Ag  Ag61  1  0.09975800  0.83353600  0.42805700  1
  Ag  Ag62  1  0.83052700  0.66646400  0.46651800  1
  Ag  Ag63  1  0.40024200  0.66646400  0.45655900  1
  Ag  Ag64  1  0.86178100  0.33353600  0.53348200  1
  Ag  Ag65  1  0.29206500  0.33353600  0.54344100  1
  Ag  Ag66  1  0.56129600  0.16646400  0.50498000  1
  Ag  Ag67  1  0.59255000  0.16646400  0.57194300  1
  Ag  Ag68  1  0.59255000  0.83353600  0.57194300  1
  Ag  Ag69  1  0.56129600  0.83353600  0.50498000  1
  Ag  Ag70  1  0.29206500  0.66646400  0.54344100  1
  Ag  Ag71  1  0.86178100  0.66646400  0.53348200  1
  Ag  Ag72  1  0.32331900  0.33353600  0.61040500  1
  Ag  Ag73  1  0.75360400  0.33353600  0.62036400  1
  Ag  Ag74  1  0.02283500  0.16646400  0.58190300  1
  Ag  Ag75  1  0.05408800  0.16646400  0.64886600  1
  Ag  Ag76  1  0.05408800  0.83353600  0.64886600  1
  Ag  Ag77  1  0.02283500  0.83353600  0.58190300  1
  Ag  Ag78  1  0.75360400  0.66646400  0.62036400  1
  Ag  Ag79  1  0.32331900  0.66646400  0.61040500  1
  Ag  Ag80  1  0.78485800  0.33353600  0.68732800  1
  Ag  Ag81  1  0.21514200  0.33353600  0.69728700  1
  Ag  Ag82  1  0.48437300  0.16646400  0.65882600  1
  Ag  Ag83  1  0.51562700  0.16646400  0.72579000  1
  Ag  Ag84  1  0.51562700  0.83353600  0.72579000  1
  Ag  Ag85  1  0.48437300  0.83353600  0.65882600  1
  Ag  Ag86  1  0.21514200  0.66646400  0.69728700  1
  Ag  Ag87  1  0.78485800  0.66646400  0.68732800  1
  Ag  Ag88  1  0.24639600  0.33353600  0.76425100  1
  Ag  Ag89  1  0.67668100  0.33353600  0.77421000  1
  Ag  Ag90  1  0.94591200  0.16646400  0.73574900  1
  Ag  Ag91  1  0.97716500  0.16646400  0.80271300  1
  Ag  Ag92  1  0.97716500  0.83353600  0.80271300  1
  Ag  Ag93  1  0.94591200  0.83353600  0.73574900  1
  Ag  Ag94  1  0.67668100  0.66646400  0.77421000  1
  Ag  Ag95  1  0.24639600  0.66646400  0.76425100  1
