# generated using pymatgen
data_MgB4
_symmetry_space_group_name_H-M   'P 1'
_cell_length_a   4.39738600
_cell_length_b   7.42725500
_cell_length_c   43.87913800
_cell_angle_alpha   90.00000000
_cell_angle_beta   90.00000000
_cell_angle_gamma   90.00000000
_symmetry_Int_Tables_number   1
_chemical_formula_structural   MgB4
_chemical_formula_sum   'Mg18 B72'
_cell_volume   1433.11490062
_cell_formula_units_Z   18
loop_
 _symmetry_equiv_pos_site_id
 _symmetry_equiv_pos_as_xyz
  1  'x, y, z'
loop_
 _atom_site_type_symbol
 _atom_site_label
 _atom_site_symmetry_multiplicity
 _atom_site_fract_x
 _atom_site_fract_y
 _atom_site_fract_z
 _atom_site_occupancy
  Mg  Mg0  1  0.25000000  0.36221400  0.22446000  1
  Mg  Mg1  1  0.75000000  0.63778600  0.21304000  1
  Mg  Mg2  1  0.25000000  0.13778600  0.28696000  1
  Mg  Mg3  1  0.75000000  0.86221400  0.27554000  1
  Mg  Mg4  1  0.25000000  0.36221400  0.34946000  1
  Mg  Mg5  1  0.75000000  0.63778600  0.33804000  1
  Mg  Mg6  1  0.25000000  0.13778600  0.41196000  1
  Mg  Mg7  1  0.75000000  0.86221400  0.40054000  1
  Mg  Mg8  1  0.25000000  0.36221400  0.47446000  1
  Mg  Mg9  1  0.75000000  0.63778600  0.46304000  1
  Mg  Mg10  1  0.25000000  0.13778600  0.53696000  1
  Mg  Mg11  1  0.75000000  0.86221400  0.52554000  1
  Mg  Mg12  1  0.25000000  0.36221400  0.59946000  1
  Mg  Mg13  1  0.75000000  0.63778600  0.58804000  1
  Mg  Mg14  1  0.25000000  0.13778600  0.66196000  1
  Mg  Mg15  1  0.75000000  0.86221400  0.65054000  1
  Mg  Mg16  1  0.25000000  0.36221400  0.72446000  1
  Mg  Mg17  1  0.75000000  0.63778600  0.71304000  1
  B  B18  1  0.25000000  0.84631100  0.30904800  1
  B  B19  1  0.75000000  0.15368900  0.25345200  1
  B  B20  1  0.25000000  0.65368900  0.24654800  1
  B  B21  1  0.75000000  0.34631100  0.19095200  1
  B  B22  1  0.25000000  0.64694100  0.28792200  1
  B  B23  1  0.75000000  0.35305900  0.27457800  1
  B  B24  1  0.25000000  0.85305900  0.22542200  1
  B  B25  1  0.75000000  0.14694100  0.21207800  1
  B  B26  1  0.05800500  0.06322000  0.23529100  1
  B  B27  1  0.55800500  0.93678000  0.20220900  1
  B  B28  1  0.44199500  0.43678000  0.29779100  1
  B  B29  1  0.94199500  0.56322000  0.26470900  1
  B  B30  1  0.94199500  0.93678000  0.20220900  1
  B  B31  1  0.44199500  0.06322000  0.23529100  1
  B  B32  1  0.55800500  0.56322000  0.26470900  1
  B  B33  1  0.05800500  0.43678000  0.29779100  1
  B  B34  1  0.25000000  0.84631100  0.43404800  1
  B  B35  1  0.75000000  0.15368900  0.37845200  1
  B  B36  1  0.25000000  0.65368900  0.37154800  1
  B  B37  1  0.75000000  0.34631100  0.31595200  1
  B  B38  1  0.25000000  0.64694100  0.41292200  1
  B  B39  1  0.75000000  0.35305900  0.39957800  1
  B  B40  1  0.25000000  0.85305900  0.35042200  1
  B  B41  1  0.75000000  0.14694100  0.33707800  1
  B  B42  1  0.05800500  0.06322000  0.36029100  1
  B  B43  1  0.55800500  0.93678000  0.32720900  1
  B  B44  1  0.44199500  0.43678000  0.42279100  1
  B  B45  1  0.94199500  0.56322000  0.38970900  1
  B  B46  1  0.94199500  0.93678000  0.32720900  1
  B  B47  1  0.44199500  0.06322000  0.36029100  1
  B  B48  1  0.55800500  0.56322000  0.38970900  1
  B  B49  1  0.05800500  0.43678000  0.42279100  1
  B  B50  1  0.25000000  0.84631100  0.55904800  1
  B  B51  1  0.75000000  0.15368900  0.50345200  1
  B  B52  1  0.25000000  0.65368900  0.49654800  1
  B  B53  1  0.75000000  0.34631100  0.44095200  1
  B  B54  1  0.25000000  0.64694100  0.53792200  1
  B  B55  1  0.75000000  0.35305900  0.52457800  1
  B  B56  1  0.25000000  0.85305900  0.47542200  1
  B  B57  1  0.75000000  0.14694100  0.46207800  1
  B  B58  1  0.05800500  0.06322000  0.48529100  1
  B  B59  1  0.55800500  0.93678000  0.45220900  1
  B  B60  1  0.44199500  0.43678000  0.54779100  1
  B  B61  1  0.94199500  0.56322000  0.51470900  1
  B  B62  1  0.94199500  0.93678000  0.45220900  1
  B  B63  1  0.44199500  0.06322000  0.48529100  1
  B  B64  1  0.55800500  0.56322000  0.51470900  1
  B  B65  1  0.05800500  0.43678000  0.54779100  1
  B  B66  1  0.25000000  0.84631100  0.68404800  1
  B  B67  1  0.75000000  0.15368900  0.62845200  1
  B  B68  1  0.25000000  0.65368900  0.62154800  1
  B  B69  1  0.75000000  0.34631100  0.56595200  1
  B  B70  1  0.25000000  0.64694100  0.66292200  1
  B  B71  1  0.75000000  0.35305900  0.64957800  1
  B  B72  1  0.25000000  0.85305900  0.60042200  1
  B  B73  1  0.75000000  0.14694100  0.58707800  1
  B  B74  1  0.05800500  0.06322000  0.61029100  1
  B  B75  1  0.55800500  0.93678000  0.57720900  1
  B  B76  1  0.44199500  0.43678000  0.67279100  1
  B  B77  1  0.94199500  0.56322000  0.63970900  1
  B  B78  1  0.94199500  0.93678000  0.57720900  1
  B  B79  1  0.44199500  0.06322000  0.61029100  1
  B  B80  1  0.55800500  0.56322000  0.63970900  1
  B  B81  1  0.05800500  0.43678000  0.67279100  1
  B  B82  1  0.25000000  0.65368900  0.74654800  1
  B  B83  1  0.75000000  0.34631100  0.69095200  1
  B  B84  1  0.25000000  0.85305900  0.72542200  1
  B  B85  1  0.75000000  0.14694100  0.71207800  1
  B  B86  1  0.05800500  0.06322000  0.73529100  1
  B  B87  1  0.55800500  0.93678000  0.70220900  1
  B  B88  1  0.94199500  0.93678000  0.70220900  1
  B  B89  1  0.44199500  0.06322000  0.73529100  1
