# generated using pymatgen
data_Dy32Mg11
_symmetry_space_group_name_H-M   'P 1'
_cell_length_a   5.03327494
_cell_length_b   10.01189431
_cell_length_c   43.86656900
_cell_angle_alpha   93.45027196
_cell_angle_beta   93.28887627
_cell_angle_gamma   75.44171047
_symmetry_Int_Tables_number   1
_chemical_formula_structural   Dy32Mg11
_chemical_formula_sum   'Dy32 Mg11'
_cell_volume   2133.65517289
_cell_formula_units_Z   1
loop_
 _symmetry_equiv_pos_site_id
 _symmetry_equiv_pos_as_xyz
  1  'x, y, z'
loop_
 _atom_site_type_symbol
 _atom_site_label
 _atom_site_symmetry_multiplicity
 _atom_site_fract_x
 _atom_site_fract_y
 _atom_site_fract_z
 _atom_site_occupancy
  Dy  Dy0  1  0.32559100  0.73981200  0.21592300  1
  Dy  Dy1  1  0.11369200  0.19009800  0.24241000  1
  Dy  Dy2  1  0.88114700  0.68425700  0.27147900  1
  Dy  Dy3  1  0.49741900  0.43717700  0.25694400  1
  Dy  Dy4  1  0.66924700  0.13454200  0.29796600  1
  Dy  Dy5  1  0.43670200  0.62870100  0.32703400  1
  Dy  Dy6  1  0.05297500  0.38162200  0.31250000  1
  Dy  Dy7  1  0.22480300  0.07898700  0.35352100  1
  Dy  Dy8  1  0.99225800  0.57314600  0.38259000  1
  Dy  Dy9  1  0.60853000  0.32606600  0.36805600  1
  Dy  Dy10  1  0.78035900  0.02343100  0.40907700  1
  Dy  Dy11  1  0.54781300  0.51759000  0.43814500  1
  Dy  Dy12  1  0.16408600  0.27051100  0.42361100  1
  Dy  Dy13  1  0.33591400  0.96787600  0.46463300  1
  Dy  Dy14  1  0.10336900  0.46203500  0.49370100  1
  Dy  Dy15  1  0.71964100  0.21495500  0.47916700  1
  Dy  Dy16  1  0.89147000  0.91232000  0.52018800  1
  Dy  Dy17  1  0.65892400  0.40647900  0.54925600  1
  Dy  Dy18  1  0.27519700  0.15940000  0.53472200  1
  Dy  Dy19  1  0.44702500  0.85676500  0.57574400  1
  Dy  Dy20  1  0.21448000  0.35092300  0.60481200  1
  Dy  Dy21  1  0.83075300  0.10384400  0.59027800  1
  Dy  Dy22  1  0.00258100  0.80120900  0.63129900  1
  Dy  Dy23  1  0.77003500  0.29536800  0.66036700  1
  Dy  Dy24  1  0.38630800  0.04828900  0.64583300  1
  Dy  Dy25  1  0.55813600  0.74565400  0.68685500  1
  Dy  Dy26  1  0.32559100  0.23981200  0.71592300  1
  Dy  Dy27  1  0.94186400  0.99273300  0.70138900  1
  Dy  Dy28  1  0.11369200  0.69009800  0.74241000  1
  Dy  Dy29  1  0.88114700  0.18425700  0.77147900  1
  Dy  Dy30  1  0.49741900  0.93717700  0.75694400  1
  Dy  Dy31  1  0.66924700  0.63454200  0.79796600  1
  Mg  Mg32  1  0.71964100  0.96495500  0.22916700  1
  Mg  Mg33  1  0.27519700  0.90940000  0.28472200  1
  Mg  Mg34  1  0.83075300  0.85384400  0.34027800  1
  Mg  Mg35  1  0.38630800  0.79828900  0.39583300  1
  Mg  Mg36  1  0.94186400  0.74273300  0.45138900  1
  Mg  Mg37  1  0.49741900  0.68717700  0.50694400  1
  Mg  Mg38  1  0.05297500  0.63162200  0.56250000  1
  Mg  Mg39  1  0.60853000  0.57606600  0.61805600  1
  Mg  Mg40  1  0.16408600  0.52051100  0.67361100  1
  Mg  Mg41  1  0.71964100  0.46495500  0.72916700  1
  Mg  Mg42  1  0.27519700  0.40940000  0.78472200  1
