# generated using pymatgen
data_Sm20Mg9
_symmetry_space_group_name_H-M   'P 1'
_cell_length_a   3.79076100
_cell_length_b   18.24769137
_cell_length_c   42.84868300
_cell_angle_alpha   96.05477005
_cell_angle_beta   90.00000000
_cell_angle_gamma   90.00000000
_symmetry_Int_Tables_number   1
_chemical_formula_structural   Sm20Mg9
_chemical_formula_sum   'Sm40 Mg18'
_cell_volume   2947.42201632
_cell_formula_units_Z   2
loop_
 _symmetry_equiv_pos_site_id
 _symmetry_equiv_pos_as_xyz
  1  'x, y, z'
loop_
 _atom_site_type_symbol
 _atom_site_label
 _atom_site_symmetry_multiplicity
 _atom_site_fract_x
 _atom_site_fract_y
 _atom_site_fract_z
 _atom_site_occupancy
  Sm  Sm0  1  0.00000000  0.99429000  0.27156700  1
  Sm  Sm1  1  0.50000000  0.83478800  0.29435300  1
  Sm  Sm2  1  0.50000000  0.65039000  0.24926700  1
  Sm  Sm3  1  1.00000000  0.80989300  0.22648100  1
  Sm  Sm4  1  0.50000000  0.43179000  0.20906700  1
  Sm  Sm5  1  0.00000000  0.27228800  0.23185300  1
  Sm  Sm6  1  0.00000000  0.21289000  0.31176700  1
  Sm  Sm7  1  0.50000000  0.37239300  0.28898100  1
  Sm  Sm8  1  1.00000000  0.11929000  0.39656700  1
  Sm  Sm9  1  0.50000000  0.95978800  0.41935300  1
  Sm  Sm10  1  0.50000000  0.77539000  0.37426700  1
  Sm  Sm11  1  1.00000000  0.93489300  0.35148100  1
  Sm  Sm12  1  0.50000000  0.55679000  0.33406700  1
  Sm  Sm13  1  0.00000000  0.39728800  0.35685300  1
  Sm  Sm14  1  1.00000000  0.33789000  0.43676700  1
  Sm  Sm15  1  0.50000000  0.49739300  0.41398100  1
  Sm  Sm16  1  1.00000000  0.24429000  0.52156700  1
  Sm  Sm17  1  0.50000000  0.08478800  0.54435300  1
  Sm  Sm18  1  0.50000000  0.90039000  0.49926700  1
  Sm  Sm19  1  1.00000000  0.05989300  0.47648100  1
  Sm  Sm20  1  0.50000000  0.68179000  0.45906700  1
  Sm  Sm21  1  1.00000000  0.52228800  0.48185300  1
  Sm  Sm22  1  0.00000000  0.46289000  0.56176700  1
  Sm  Sm23  1  0.50000000  0.62239300  0.53898100  1
  Sm  Sm24  1  1.00000000  0.36929000  0.64656700  1
  Sm  Sm25  1  0.50000000  0.20978800  0.66935300  1
  Sm  Sm26  1  0.50000000  0.02539000  0.62426700  1
  Sm  Sm27  1  0.00000000  0.18489300  0.60148100  1
  Sm  Sm28  1  0.50000000  0.80679000  0.58406700  1
  Sm  Sm29  1  1.00000000  0.64728800  0.60685300  1
  Sm  Sm30  1  1.00000000  0.58789000  0.68676700  1
  Sm  Sm31  1  0.50000000  0.74739300  0.66398100  1
  Sm  Sm32  1  1.00000000  0.49429000  0.77156700  1
  Sm  Sm33  1  0.50000000  0.33478800  0.79435300  1
  Sm  Sm34  1  0.50000000  0.15039000  0.74926700  1
  Sm  Sm35  1  1.00000000  0.30989300  0.72648100  1
  Sm  Sm36  1  0.50000000  0.93179000  0.70906700  1
  Sm  Sm37  1  1.00000000  0.77228800  0.73185300  1
  Sm  Sm38  1  1.00000000  0.71289000  0.81176700  1
  Sm  Sm39  1  0.50000000  0.87239300  0.78898100  1
  Mg  Mg40  1  0.50000000  0.13205600  0.25188600  1
  Mg  Mg41  1  1.00000000  0.51262500  0.26894700  1
  Mg  Mg42  1  1.00000000  0.69455600  0.31438600  1
  Mg  Mg43  1  0.50000000  0.07512500  0.33144700  1
  Mg  Mg44  1  0.50000000  0.25705600  0.37688600  1
  Mg  Mg45  1  0.00000000  0.63762500  0.39394700  1
  Mg  Mg46  1  0.00000000  0.81955600  0.43938600  1
  Mg  Mg47  1  0.50000000  0.20012500  0.45644700  1
  Mg  Mg48  1  0.50000000  0.38205600  0.50188600  1
  Mg  Mg49  1  1.00000000  0.76262500  0.51894700  1
  Mg  Mg50  1  1.00000000  0.94455600  0.56438600  1
  Mg  Mg51  1  0.50000000  0.32512500  0.58144700  1
  Mg  Mg52  1  0.50000000  0.50705600  0.62688600  1
  Mg  Mg53  1  0.00000000  0.88762500  0.64394700  1
  Mg  Mg54  1  1.00000000  0.06955600  0.68938600  1
  Mg  Mg55  1  0.50000000  0.45012500  0.70644700  1
  Mg  Mg56  1  0.50000000  0.63205600  0.75188600  1
  Mg  Mg57  1  1.00000000  0.01262500  0.76894700  1
