# generated using pymatgen
data_Mg10Hg31
_symmetry_space_group_name_H-M   'P 1'
_cell_length_a   8.57724509
_cell_length_b   10.62223227
_cell_length_c   43.34156100
_cell_angle_alpha   94.27347142
_cell_angle_beta   95.67867376
_cell_angle_gamma   66.18779536
_symmetry_Int_Tables_number   1
_chemical_formula_structural   Mg10Hg31
_chemical_formula_sum   'Mg20 Hg62'
_cell_volume   3592.35667264
_cell_formula_units_Z   2
loop_
 _symmetry_equiv_pos_site_id
 _symmetry_equiv_pos_as_xyz
  1  'x, y, z'
loop_
 _atom_site_type_symbol
 _atom_site_label
 _atom_site_symmetry_multiplicity
 _atom_site_fract_x
 _atom_site_fract_y
 _atom_site_fract_z
 _atom_site_occupancy
  Mg  Mg0  1  0.62737400  0.66175500  0.28472200  1
  Mg  Mg1  1  0.18293000  0.18953300  0.25694400  1
  Mg  Mg2  1  0.18293000  0.60620000  0.34027800  1
  Mg  Mg3  1  0.73848600  0.13397700  0.31250000  1
  Mg  Mg4  1  0.73848600  0.55064400  0.39583300  1
  Mg  Mg5  1  0.29404100  0.07842200  0.36805600  1
  Mg  Mg6  1  0.29404100  0.49508800  0.45138900  1
  Mg  Mg7  1  0.84959700  0.02286600  0.42361100  1
  Mg  Mg8  1  0.84959700  0.43953300  0.50694400  1
  Mg  Mg9  1  0.40515200  0.96731100  0.47916700  1
  Mg  Mg10  1  0.40515200  0.38397700  0.56250000  1
  Mg  Mg11  1  0.96070800  0.91175500  0.53472200  1
  Mg  Mg12  1  0.96070800  0.32842200  0.61805600  1
  Mg  Mg13  1  0.51626300  0.85620000  0.59027800  1
  Mg  Mg14  1  0.51626300  0.27286600  0.67361100  1
  Mg  Mg15  1  0.07181900  0.80064400  0.64583300  1
  Mg  Mg16  1  0.07181900  0.21731100  0.72916700  1
  Mg  Mg17  1  0.62737400  0.74508800  0.70138900  1
  Mg  Mg18  1  0.62737400  0.16175500  0.78472200  1
  Mg  Mg19  1  0.18293000  0.68953300  0.75694400  1
  Hg  Hg20  1  0.92818100  0.02254100  0.24712100  1
  Hg  Hg21  1  0.32656800  0.88430300  0.23899000  1
  Hg  Hg22  1  0.48373700  0.96698500  0.30267700  1
  Hg  Hg23  1  0.88212300  0.82874700  0.29454500  1
  Hg  Hg24  1  0.03929200  0.49476300  0.27489900  1
  Hg  Hg25  1  0.77101200  0.35652500  0.26676700  1
  Hg  Hg26  1  0.29404100  0.66175500  0.28472200  1
  Hg  Hg27  1  0.51626300  0.18953300  0.25694400  1
  Hg  Hg28  1  0.03929200  0.91143000  0.35823300  1
  Hg  Hg29  1  0.43767900  0.77319100  0.35010100  1
  Hg  Hg30  1  0.59484800  0.43920800  0.33045500  1
  Hg  Hg31  1  0.32656800  0.30096900  0.32232300  1
  Hg  Hg32  1  0.84959700  0.60620000  0.34027800  1
  Hg  Hg33  1  0.07181900  0.13397700  0.31250000  1
  Hg  Hg34  1  0.59484800  0.85587400  0.41378800  1
  Hg  Hg35  1  0.99323400  0.71763600  0.40565600  1
  Hg  Hg36  1  0.15040300  0.38365200  0.38601000  1
  Hg  Hg37  1  0.88212300  0.24541400  0.37787900  1
  Hg  Hg38  1  0.40515200  0.55064400  0.39583300  1
  Hg  Hg39  1  0.62737400  0.07842200  0.36805600  1
  Hg  Hg40  1  0.15040300  0.80031900  0.46934400  1
  Hg  Hg41  1  0.54879000  0.66208000  0.46121200  1
  Hg  Hg42  1  0.70595900  0.32809700  0.44156600  1
  Hg  Hg43  1  0.43767900  0.18985800  0.43343400  1
  Hg  Hg44  1  0.96070800  0.49508800  0.45138900  1
  Hg  Hg45  1  0.18293000  0.02286600  0.42361100  1
  Hg  Hg46  1  0.70595900  0.74476300  0.52489900  1
  Hg  Hg47  1  0.10434600  0.60652500  0.51676700  1
  Hg  Hg48  1  0.26151400  0.27254100  0.49712100  1
  Hg  Hg49  1  0.99323400  0.13430300  0.48899000  1
  Hg  Hg50  1  0.51626300  0.43953300  0.50694400  1
  Hg  Hg51  1  0.73848600  0.96731100  0.47916700  1
  Hg  Hg52  1  0.26151400  0.68920800  0.58045500  1
  Hg  Hg53  1  0.65990100  0.55096900  0.57232300  1
  Hg  Hg54  1  0.81707000  0.21698500  0.55267700  1
  Hg  Hg55  1  0.54879000  0.07874700  0.54454500  1
  Hg  Hg56  1  0.07181900  0.38397700  0.56250000  1
  Hg  Hg57  1  0.29404100  0.91175500  0.53472200  1
  Hg  Hg58  1  0.81707000  0.63365200  0.63601000  1
  Hg  Hg59  1  0.21545700  0.49541400  0.62787900  1
  Hg  Hg60  1  0.37262600  0.16143000  0.60823300  1
  Hg  Hg61  1  0.10434600  0.02319100  0.60010100  1
  Hg  Hg62  1  0.62737400  0.32842200  0.61805600  1
  Hg  Hg63  1  0.84959700  0.85620000  0.59027800  1
  Hg  Hg64  1  0.37262600  0.57809700  0.69156600  1
  Hg  Hg65  1  0.77101200  0.43985800  0.68343400  1
  Hg  Hg66  1  0.92818100  0.10587400  0.66378800  1
  Hg  Hg67  1  0.65990100  0.96763600  0.65565600  1
  Hg  Hg68  1  0.18293000  0.27286600  0.67361100  1
  Hg  Hg69  1  0.40515200  0.80064400  0.64583300  1
  Hg  Hg70  1  0.92818100  0.52254100  0.74712100  1
  Hg  Hg71  1  0.32656800  0.38430300  0.73899000  1
  Hg  Hg72  1  0.48373700  0.05031900  0.71934400  1
  Hg  Hg73  1  0.21545700  0.91208000  0.71121200  1
  Hg  Hg74  1  0.73848600  0.21731100  0.72916700  1
  Hg  Hg75  1  0.96070800  0.74508800  0.70138900  1
  Hg  Hg76  1  0.48373700  0.46698500  0.80267700  1
  Hg  Hg77  1  0.88212300  0.32874700  0.79454500  1
  Hg  Hg78  1  0.03929200  0.99476300  0.77489900  1
  Hg  Hg79  1  0.77101200  0.85652500  0.76676700  1
  Hg  Hg80  1  0.29404100  0.16175500  0.78472200  1
  Hg  Hg81  1  0.51626300  0.68953300  0.75694400  1
