# generated using pymatgen
data_Ho8Mg39
_symmetry_space_group_name_H-M   'P 1'
_cell_length_a   6.18220983
_cell_length_b   7.97297260
_cell_length_c   41.97117300
_cell_angle_alpha   92.57119793
_cell_angle_beta   91.98153646
_cell_angle_gamma   112.06633649
_symmetry_Int_Tables_number   1
_chemical_formula_structural   Ho8Mg39
_chemical_formula_sum   'Ho8 Mg39'
_cell_volume   1912.35664128
_cell_formula_units_Z   1
loop_
 _symmetry_equiv_pos_site_id
 _symmetry_equiv_pos_as_xyz
  1  'x, y, z'
loop_
 _atom_site_type_symbol
 _atom_site_label
 _atom_site_symmetry_multiplicity
 _atom_site_fract_x
 _atom_site_fract_y
 _atom_site_fract_z
 _atom_site_occupancy
  Ho  Ho0  1  0.44352300  0.59035100  0.76282100  1
  Ho  Ho1  1  0.67429200  0.74419700  0.68589700  1
  Ho  Ho2  1  0.90506200  0.89804400  0.60897400  1
  Ho  Ho3  1  0.13583100  0.05189000  0.53205100  1
  Ho  Ho4  1  0.36660000  0.20573600  0.45512800  1
  Ho  Ho5  1  0.59736900  0.35958200  0.37820500  1
  Ho  Ho6  1  0.82813900  0.51342800  0.30128200  1
  Ho  Ho7  1  0.05890800  0.66727400  0.22435900  1
  Mg  Mg8  1  0.00374400  0.78486300  0.75114100  1
  Mg  Mg9  1  0.52111200  0.98706300  0.73778700  1
  Mg  Mg10  1  0.36593400  0.19363900  0.78785400  1
  Mg  Mg11  1  0.88330200  0.39584000  0.77450000  1
  Mg  Mg12  1  0.23451400  0.93870900  0.67421800  1
  Mg  Mg13  1  0.75188100  0.14090900  0.66086400  1
  Mg  Mg14  1  0.05890800  0.16727400  0.72435900  1
  Mg  Mg15  1  0.59670300  0.34748600  0.71093100  1
  Mg  Mg16  1  0.11407100  0.54968600  0.69757700  1
  Mg  Mg17  1  0.46528300  0.09255500  0.59729500  1
  Mg  Mg18  1  0.98265100  0.29475600  0.58394100  1
  Mg  Mg19  1  0.28967700  0.32112100  0.64743600  1
  Mg  Mg20  1  0.82747300  0.50133200  0.63400800  1
  Mg  Mg21  1  0.34484000  0.70353200  0.62065400  1
  Mg  Mg22  1  0.69605200  0.24640100  0.52037200  1
  Mg  Mg23  1  0.21342000  0.44860200  0.50701800  1
  Mg  Mg24  1  0.52044600  0.47496700  0.57051300  1
  Mg  Mg25  1  0.05824200  0.65517800  0.55708500  1
  Mg  Mg26  1  0.57561000  0.85737900  0.54373100  1
  Mg  Mg27  1  0.92682100  0.40024700  0.44344900  1
  Mg  Mg28  1  0.44418900  0.60244800  0.43009500  1
  Mg  Mg29  1  0.75121500  0.62881300  0.49359000  1
  Mg  Mg30  1  0.28901100  0.80902400  0.48016100  1
  Mg  Mg31  1  0.80637900  0.01122500  0.46680800  1
  Mg  Mg32  1  0.15759100  0.55409300  0.36652600  1
  Mg  Mg33  1  0.67495800  0.75629400  0.35317200  1
  Mg  Mg34  1  0.98198500  0.78265900  0.41666700  1
  Mg  Mg35  1  0.51978000  0.96287000  0.40323800  1
  Mg  Mg36  1  0.03714800  0.16507100  0.38988500  1
  Mg  Mg37  1  0.38836000  0.70794000  0.28960300  1
  Mg  Mg38  1  0.90572800  0.91014000  0.27624900  1
  Mg  Mg39  1  0.21275400  0.93650500  0.33974400  1
  Mg  Mg40  1  0.75054900  0.11671600  0.32631500  1
  Mg  Mg41  1  0.26791700  0.31891700  0.31296100  1
  Mg  Mg42  1  0.61912900  0.86178600  0.21268000  1
  Mg  Mg43  1  0.13649700  0.06398600  0.19932600  1
  Mg  Mg44  1  0.44352300  0.09035100  0.26282100  1
  Mg  Mg45  1  0.98131900  0.27056200  0.24939200  1
  Mg  Mg46  1  0.49868700  0.47276300  0.23603800  1
