# generated using pymatgen
data_Mg5In2
_symmetry_space_group_name_H-M   'P 1'
_cell_length_a   6.31272291
_cell_length_b   8.73688585
_cell_length_c   44.95231700
_cell_angle_alpha   85.26825975
_cell_angle_beta   85.97361685
_cell_angle_gamma   68.82187958
_symmetry_Int_Tables_number   1
_chemical_formula_structural   Mg5In2
_chemical_formula_sum   'Mg40 In16'
_cell_volume   2301.77444013
_cell_formula_units_Z   8
loop_
 _symmetry_equiv_pos_site_id
 _symmetry_equiv_pos_as_xyz
  1  'x, y, z'
loop_
 _atom_site_type_symbol
 _atom_site_label
 _atom_site_symmetry_multiplicity
 _atom_site_fract_x
 _atom_site_fract_y
 _atom_site_fract_z
 _atom_site_occupancy
  Mg  Mg0  1  0.80785200  0.70565300  0.67864300  1
  Mg  Mg1  1  0.04929100  0.15148900  0.74992900  1
  Mg  Mg2  1  0.45369700  0.43827000  0.65433500  1
  Mg  Mg3  1  0.40344600  0.41887200  0.77423600  1
  Mg  Mg4  1  0.67857100  0.42857100  0.71428600  1
  Mg  Mg5  1  0.17857100  0.42857100  0.71428600  1
  Mg  Mg6  1  0.88134400  0.05682200  0.68049000  1
  Mg  Mg7  1  0.47579900  0.80032100  0.74808100  1
  Mg  Mg8  1  0.97579900  0.80032100  0.74808100  1
  Mg  Mg9  1  0.38134400  0.05682200  0.68049000  1
  Mg  Mg10  1  0.66499500  0.13422500  0.53578600  1
  Mg  Mg11  1  0.90643400  0.58006100  0.60707200  1
  Mg  Mg12  1  0.31084000  0.86684200  0.51147800  1
  Mg  Mg13  1  0.26058900  0.84744400  0.63137900  1
  Mg  Mg14  1  0.53571400  0.85714300  0.57142900  1
  Mg  Mg15  1  0.03571400  0.85714300  0.57142900  1
  Mg  Mg16  1  0.73848700  0.48539300  0.53763300  1
  Mg  Mg17  1  0.33294200  0.22889300  0.60522400  1
  Mg  Mg18  1  0.83294200  0.22889300  0.60522400  1
  Mg  Mg19  1  0.23848700  0.48539300  0.53763300  1
  Mg  Mg20  1  0.52213800  0.56279600  0.39292800  1
  Mg  Mg21  1  0.76357700  0.00863200  0.46421400  1
  Mg  Mg22  1  0.16798300  0.29541300  0.36862100  1
  Mg  Mg23  1  0.11773100  0.27601500  0.48852200  1
  Mg  Mg24  1  0.39285700  0.28571400  0.42857100  1
  Mg  Mg25  1  0.89285700  0.28571400  0.42857100  1
  Mg  Mg26  1  0.59563000  0.91396400  0.39477600  1
  Mg  Mg27  1  0.19008400  0.65746400  0.46236700  1
  Mg  Mg28  1  0.69008400  0.65746400  0.46236700  1
  Mg  Mg29  1  0.09563000  0.91396400  0.39477600  1
  Mg  Mg30  1  0.37928100  0.99136800  0.25007100  1
  Mg  Mg31  1  0.62071900  0.43720400  0.32135700  1
  Mg  Mg32  1  0.02512600  0.72398500  0.22576400  1
  Mg  Mg33  1  0.97487400  0.70458700  0.34566500  1
  Mg  Mg34  1  0.25000000  0.71428600  0.28571400  1
  Mg  Mg35  1  0.75000000  0.71428600  0.28571400  1
  Mg  Mg36  1  0.45277300  0.34253600  0.25191900  1
  Mg  Mg37  1  0.04722700  0.08603600  0.31951000  1
  Mg  Mg38  1  0.54722700  0.08603600  0.31951000  1
  Mg  Mg39  1  0.95277300  0.34253600  0.25191900  1
  In  In40  1  0.86127800  0.50841300  0.76903000  1
  In  In41  1  0.99586500  0.34872900  0.65954100  1
  In  In42  1  0.57048500  0.12486700  0.73416200  1
  In  In43  1  0.28665800  0.73227500  0.69440900  1
  In  In44  1  0.71842100  0.93698500  0.62617300  1
  In  In45  1  0.85300700  0.77730100  0.51668400  1
  In  In46  1  0.42762800  0.55343900  0.59130500  1
  In  In47  1  0.14380000  0.16084700  0.55155200  1
  In  In48  1  0.57556400  0.36555600  0.48331600  1
  In  In49  1  0.71015000  0.20587200  0.37382700  1
  In  In50  1  0.28477100  0.98201000  0.44844800  1
  In  In51  1  0.00094300  0.58941800  0.40869500  1
  In  In52  1  0.43270700  0.79412800  0.34045900  1
  In  In53  1  0.56729300  0.63444400  0.23097000  1
  In  In54  1  0.14191400  0.41058200  0.30559100  1
  In  In55  1  0.85808600  0.01799000  0.26583800  1
