# generated using pymatgen
data_Yb13Mg6
_symmetry_space_group_name_H-M   'P 1'
_cell_length_a   5.87266200
_cell_length_b   9.47017938
_cell_length_c   44.25669700
_cell_angle_alpha   90.64677827
_cell_angle_beta   90.00000000
_cell_angle_gamma   90.00000000
_symmetry_Int_Tables_number   1
_chemical_formula_structural   Yb13Mg6
_chemical_formula_sum   'Yb26 Mg12'
_cell_volume   2461.18657757
_cell_formula_units_Z   2
loop_
 _symmetry_equiv_pos_site_id
 _symmetry_equiv_pos_as_xyz
  1  'x, y, z'
loop_
 _atom_site_type_symbol
 _atom_site_label
 _atom_site_symmetry_multiplicity
 _atom_site_fract_x
 _atom_site_fract_y
 _atom_site_fract_z
 _atom_site_occupancy
  Yb  Yb0  1  0.75000000  0.95469700  0.77008600  1
  Yb  Yb1  1  0.75000000  0.27919800  0.71249900  1
  Yb  Yb2  1  0.25000000  0.60085800  0.78547000  1
  Yb  Yb3  1  0.25000000  0.19302400  0.75972400  1
  Yb  Yb4  1  0.75000000  0.87136400  0.68675200  1
  Yb  Yb5  1  0.75000000  0.19586500  0.62916500  1
  Yb  Yb6  1  0.25000000  0.51752500  0.70213700  1
  Yb  Yb7  1  0.25000000  0.10969100  0.67639000  1
  Yb  Yb8  1  0.75000000  0.78803100  0.60341900  1
  Yb  Yb9  1  0.75000000  0.11253100  0.54583200  1
  Yb  Yb10  1  0.25000000  0.43419200  0.61880300  1
  Yb  Yb11  1  0.25000000  0.02635800  0.59305700  1
  Yb  Yb12  1  0.75000000  0.70469700  0.52008600  1
  Yb  Yb13  1  0.75000000  0.02919800  0.46249900  1
  Yb  Yb14  1  0.25000000  0.35085800  0.53547000  1
  Yb  Yb15  1  0.25000000  0.94302400  0.50972400  1
  Yb  Yb16  1  0.75000000  0.62136400  0.43675200  1
  Yb  Yb17  1  0.75000000  0.94586500  0.37916500  1
  Yb  Yb18  1  0.25000000  0.26752500  0.45213700  1
  Yb  Yb19  1  0.25000000  0.85969100  0.42639000  1
  Yb  Yb20  1  0.75000000  0.53803100  0.35341900  1
  Yb  Yb21  1  0.75000000  0.86253100  0.29583200  1
  Yb  Yb22  1  0.25000000  0.18419200  0.36880300  1
  Yb  Yb23  1  0.25000000  0.77635800  0.34305700  1
  Yb  Yb24  1  0.75000000  0.45469700  0.27008600  1
  Yb  Yb25  1  0.25000000  0.10085800  0.28547000  1
  Mg  Mg26  1  0.75000000  0.62208400  0.74106900  1
  Mg  Mg27  1  0.25000000  0.85013800  0.73115300  1
  Mg  Mg28  1  0.75000000  0.53875000  0.65773500  1
  Mg  Mg29  1  0.25000000  0.76680500  0.64782000  1
  Mg  Mg30  1  0.75000000  0.45541700  0.57440200  1
  Mg  Mg31  1  0.25000000  0.68347200  0.56448700  1
  Mg  Mg32  1  0.75000000  0.37208400  0.49106900  1
  Mg  Mg33  1  0.25000000  0.60013800  0.48115300  1
  Mg  Mg34  1  0.75000000  0.28875000  0.40773500  1
  Mg  Mg35  1  0.25000000  0.51680500  0.39782000  1
  Mg  Mg36  1  0.75000000  0.20541700  0.32440200  1
  Mg  Mg37  1  0.25000000  0.43347200  0.31448700  1
