# generated using pymatgen
data_Pr2Mg
_symmetry_space_group_name_H-M   'P 1'
_cell_length_a   5.72809200
_cell_length_b   8.96230627
_cell_length_c   41.55273300
_cell_angle_alpha   89.69346189
_cell_angle_beta   90.00000000
_cell_angle_gamma   90.00000000
_symmetry_Int_Tables_number   1
_chemical_formula_structural   Pr2Mg
_chemical_formula_sum   'Pr28 Mg14'
_cell_volume   2133.15858512
_cell_formula_units_Z   14
loop_
 _symmetry_equiv_pos_site_id
 _symmetry_equiv_pos_as_xyz
  1  'x, y, z'
loop_
 _atom_site_type_symbol
 _atom_site_label
 _atom_site_symmetry_multiplicity
 _atom_site_fract_x
 _atom_site_fract_y
 _atom_site_fract_z
 _atom_site_occupancy
  Pr  Pr0  1  0.25000000  0.30065700  0.76490400  1
  Pr  Pr1  1  0.25000000  0.68955400  0.79400400  1
  Pr  Pr2  1  0.75000000  0.97207100  0.78055100  1
  Pr  Pr3  1  0.75000000  0.58317300  0.75145100  1
  Pr  Pr4  1  0.25000000  0.20974700  0.67399500  1
  Pr  Pr5  1  0.25000000  0.59864500  0.70309500  1
  Pr  Pr6  1  0.75000000  0.88116200  0.68964200  1
  Pr  Pr7  1  0.75000000  0.49226400  0.66054200  1
  Pr  Pr8  1  0.25000000  0.11883800  0.58308600  1
  Pr  Pr9  1  0.25000000  0.50773600  0.61218600  1
  Pr  Pr10  1  0.75000000  0.79025300  0.59873300  1
  Pr  Pr11  1  0.75000000  0.40135500  0.56963200  1
  Pr  Pr12  1  0.25000000  0.02792900  0.49217700  1
  Pr  Pr13  1  0.25000000  0.41682700  0.52127700  1
  Pr  Pr14  1  0.75000000  0.69934300  0.50782300  1
  Pr  Pr15  1  0.75000000  0.31044600  0.47872300  1
  Pr  Pr16  1  0.25000000  0.93702000  0.40126700  1
  Pr  Pr17  1  0.25000000  0.32591800  0.43036800  1
  Pr  Pr18  1  0.75000000  0.60843400  0.41691400  1
  Pr  Pr19  1  0.75000000  0.21953700  0.38781400  1
  Pr  Pr20  1  0.25000000  0.84611100  0.31035800  1
  Pr  Pr21  1  0.25000000  0.23500900  0.33945800  1
  Pr  Pr22  1  0.75000000  0.51752500  0.32600500  1
  Pr  Pr23  1  0.75000000  0.12862800  0.29690500  1
  Pr  Pr24  1  0.25000000  0.75520200  0.21944900  1
  Pr  Pr25  1  0.25000000  0.14410000  0.24854900  1
  Pr  Pr26  1  0.75000000  0.42661600  0.23509600  1
  Pr  Pr27  1  0.75000000  0.03771800  0.20599600  1
  Mg  Mg28  1  0.25000000  0.95376000  0.73380400  1
  Mg  Mg29  1  0.75000000  0.31896800  0.81165100  1
  Mg  Mg30  1  0.25000000  0.86285000  0.64289500  1
  Mg  Mg31  1  0.75000000  0.22805900  0.72074200  1
  Mg  Mg32  1  0.25000000  0.77194100  0.55198500  1
  Mg  Mg33  1  0.75000000  0.13715000  0.62983300  1
  Mg  Mg34  1  0.25000000  0.68103200  0.46107600  1
  Mg  Mg35  1  0.75000000  0.04624000  0.53892400  1
  Mg  Mg36  1  0.25000000  0.59012300  0.37016700  1
  Mg  Mg37  1  0.75000000  0.95533100  0.44801500  1
  Mg  Mg38  1  0.25000000  0.49921400  0.27925800  1
  Mg  Mg39  1  0.75000000  0.86442200  0.35710500  1
  Mg  Mg40  1  0.25000000  0.40830500  0.18834900  1
  Mg  Mg41  1  0.75000000  0.77351300  0.26619600  1
