# generated using pymatgen
data_Ca24Mg47
_symmetry_space_group_name_H-M   'P 1'
_cell_length_a   6.14690500
_cell_length_b   12.06769123
_cell_length_c   47.38177000
_cell_angle_alpha   91.10404210
_cell_angle_beta   90.00000000
_cell_angle_gamma   75.24511335
_symmetry_Int_Tables_number   1
_chemical_formula_structural   Ca24Mg47
_chemical_formula_sum   'Ca24 Mg47'
_cell_volume   3398.15431629
_cell_formula_units_Z   1
loop_
 _symmetry_equiv_pos_site_id
 _symmetry_equiv_pos_as_xyz
  1  'x, y, z'
loop_
 _atom_site_type_symbol
 _atom_site_label
 _atom_site_symmetry_multiplicity
 _atom_site_fract_x
 _atom_site_fract_y
 _atom_site_fract_z
 _atom_site_occupancy
  Ca  Ca0  1  0.10685300  0.82696900  0.25652100  1
  Ca  Ca1  1  0.37352000  0.29363500  0.27318800  1
  Ca  Ca2  1  0.52568700  0.98930100  0.23514600  1
  Ca  Ca3  1  0.25902000  0.52263500  0.21847900  1
  Ca  Ca4  1  0.70685300  0.62696900  0.35652100  1
  Ca  Ca5  1  0.97352000  0.09363500  0.37318800  1
  Ca  Ca6  1  0.12568700  0.78930100  0.33514600  1
  Ca  Ca7  1  0.85902000  0.32263500  0.31847900  1
  Ca  Ca8  1  0.30685300  0.42696900  0.45652100  1
  Ca  Ca9  1  0.57352000  0.89363500  0.47318800  1
  Ca  Ca10  1  0.72568700  0.58930100  0.43514600  1
  Ca  Ca11  1  0.45902000  0.12263500  0.41847900  1
  Ca  Ca12  1  0.90685300  0.22696900  0.55652100  1
  Ca  Ca13  1  0.17352000  0.69363500  0.57318800  1
  Ca  Ca14  1  0.32568700  0.38930100  0.53514600  1
  Ca  Ca15  1  0.05902000  0.92263500  0.51847900  1
  Ca  Ca16  1  0.50685300  0.02696900  0.65652100  1
  Ca  Ca17  1  0.77352000  0.49363500  0.67318800  1
  Ca  Ca18  1  0.92568700  0.18930100  0.63514600  1
  Ca  Ca19  1  0.65902000  0.72263500  0.61847900  1
  Ca  Ca20  1  0.10685300  0.82696900  0.75652100  1
  Ca  Ca21  1  0.37352000  0.29363500  0.77318800  1
  Ca  Ca22  1  0.52568700  0.98930100  0.73514600  1
  Ca  Ca23  1  0.25902000  0.52263500  0.71847900  1
  Mg  Mg24  1  0.95000000  0.14067500  0.25456300  1
  Mg  Mg25  1  0.98610900  0.57440500  0.28769800  1
  Mg  Mg26  1  0.48016100  0.57440500  0.28769800  1
  Mg  Mg27  1  0.15237900  0.24186500  0.20396800  1
  Mg  Mg28  1  0.81627000  0.40813500  0.24583300  1
  Mg  Mg29  1  0.61627000  0.80813500  0.29583300  1
  Mg  Mg30  1  0.68254000  0.67559500  0.23710300  1
  Mg  Mg31  1  0.64643100  0.24186500  0.20396800  1
  Mg  Mg32  1  0.55000000  0.94067500  0.35456300  1
  Mg  Mg33  1  0.58610900  0.37440500  0.38769800  1
  Mg  Mg34  1  0.08016100  0.37440500  0.38769800  1
  Mg  Mg35  1  0.75237900  0.04186500  0.30396800  1
  Mg  Mg36  1  0.41627000  0.20813500  0.34583300  1
  Mg  Mg37  1  0.21627000  0.60813500  0.39583300  1
  Mg  Mg38  1  0.28254000  0.47559500  0.33710300  1
  Mg  Mg39  1  0.24643100  0.04186500  0.30396800  1
  Mg  Mg40  1  0.15000000  0.74067500  0.45456300  1
  Mg  Mg41  1  0.18610900  0.17440500  0.48769800  1
  Mg  Mg42  1  0.68016100  0.17440500  0.48769800  1
  Mg  Mg43  1  0.35237900  0.84186500  0.40396800  1
  Mg  Mg44  1  0.01627000  0.00813500  0.44583300  1
  Mg  Mg45  1  0.81627000  0.40813500  0.49583300  1
  Mg  Mg46  1  0.88254000  0.27559500  0.43710300  1
  Mg  Mg47  1  0.84643100  0.84186500  0.40396800  1
  Mg  Mg48  1  0.75000000  0.54067500  0.55456300  1
  Mg  Mg49  1  0.78610900  0.97440500  0.58769800  1
  Mg  Mg50  1  0.28016100  0.97440500  0.58769800  1
  Mg  Mg51  1  0.95237900  0.64186500  0.50396800  1
  Mg  Mg52  1  0.61627000  0.80813500  0.54583300  1
  Mg  Mg53  1  0.41627000  0.20813500  0.59583300  1
  Mg  Mg54  1  0.48254000  0.07559500  0.53710300  1
  Mg  Mg55  1  0.44643100  0.64186500  0.50396800  1
  Mg  Mg56  1  0.35000000  0.34067500  0.65456300  1
  Mg  Mg57  1  0.38610900  0.77440500  0.68769800  1
  Mg  Mg58  1  0.88016100  0.77440500  0.68769800  1
  Mg  Mg59  1  0.55237900  0.44186500  0.60396800  1
  Mg  Mg60  1  0.21627000  0.60813500  0.64583300  1
  Mg  Mg61  1  0.01627000  0.00813500  0.69583300  1
  Mg  Mg62  1  0.08254000  0.87559500  0.63710300  1
  Mg  Mg63  1  0.04643100  0.44186500  0.60396800  1
  Mg  Mg64  1  0.95000000  0.14067500  0.75456300  1
  Mg  Mg65  1  0.98610900  0.57440500  0.78769800  1
  Mg  Mg66  1  0.48016100  0.57440500  0.78769800  1
  Mg  Mg67  1  0.15237900  0.24186500  0.70396800  1
  Mg  Mg68  1  0.81627000  0.40813500  0.74583300  1
  Mg  Mg69  1  0.68254000  0.67559500  0.73710300  1
  Mg  Mg70  1  0.64643100  0.24186500  0.70396800  1
