# generated using pymatgen
data_MgPd2
_symmetry_space_group_name_H-M   'P 1'
_cell_length_a   6.94548378
_cell_length_b   9.19052455
_cell_length_c   43.38640000
_cell_angle_alpha   90.95958529
_cell_angle_beta   93.38110513
_cell_angle_gamma   74.03149322
_symmetry_Int_Tables_number   1
_chemical_formula_structural   MgPd2
_chemical_formula_sum   'Mg36 Pd72'
_cell_volume   2657.96799762
_cell_formula_units_Z   36
loop_
 _symmetry_equiv_pos_site_id
 _symmetry_equiv_pos_as_xyz
  1  'x, y, z'
loop_
 _atom_site_type_symbol
 _atom_site_label
 _atom_site_symmetry_multiplicity
 _atom_site_fract_x
 _atom_site_fract_y
 _atom_site_fract_z
 _atom_site_occupancy
  Mg  Mg0  1  0.07708500  0.35596400  0.20145300  1
  Mg  Mg1  1  0.63720100  0.50117900  0.22711900  1
  Mg  Mg2  1  0.52092800  0.02443300  0.21549200  1
  Mg  Mg3  1  0.19335700  0.83271000  0.21308000  1
  Mg  Mg4  1  0.79137000  0.21310700  0.27288100  1
  Mg  Mg5  1  0.35148700  0.35832200  0.29854700  1
  Mg  Mg6  1  0.23521400  0.88157600  0.28692000  1
  Mg  Mg7  1  0.90764300  0.68985200  0.28450800  1
  Mg  Mg8  1  0.50565600  0.07025000  0.34431000  1
  Mg  Mg9  1  0.06577200  0.21546400  0.36997600  1
  Mg  Mg10  1  0.94950000  0.73871900  0.35834900  1
  Mg  Mg11  1  0.62192900  0.54699500  0.35593700  1
  Mg  Mg12  1  0.21994200  0.92739300  0.41573800  1
  Mg  Mg13  1  0.78005800  0.07260700  0.44140500  1
  Mg  Mg14  1  0.66378500  0.59586200  0.42977700  1
  Mg  Mg15  1  0.33621500  0.40413800  0.42736600  1
  Mg  Mg16  1  0.93422800  0.78453600  0.48716700  1
  Mg  Mg17  1  0.49434400  0.92975000  0.51283300  1
  Mg  Mg18  1  0.37807100  0.45300500  0.50120600  1
  Mg  Mg19  1  0.05050000  0.26128100  0.49879400  1
  Mg  Mg20  1  0.64851300  0.64167800  0.55859500  1
  Mg  Mg21  1  0.20863000  0.78689300  0.58426200  1
  Mg  Mg22  1  0.09235700  0.31014800  0.57263400  1
  Mg  Mg23  1  0.76478600  0.11842400  0.57022300  1
  Mg  Mg24  1  0.36279900  0.49882100  0.63002400  1
  Mg  Mg25  1  0.92291500  0.64403600  0.65569000  1
  Mg  Mg26  1  0.80664300  0.16729000  0.64406300  1
  Mg  Mg27  1  0.47907200  0.97556700  0.64165100  1
  Mg  Mg28  1  0.07708500  0.35596400  0.70145300  1
  Mg  Mg29  1  0.63720100  0.50117900  0.72711900  1
  Mg  Mg30  1  0.52092800  0.02443300  0.71549200  1
  Mg  Mg31  1  0.19335700  0.83271000  0.71308000  1
  Mg  Mg32  1  0.79137000  0.21310700  0.77288100  1
  Mg  Mg33  1  0.35148700  0.35832200  0.79854700  1
  Mg  Mg34  1  0.23521400  0.88157600  0.78692000  1
  Mg  Mg35  1  0.90764300  0.68985200  0.78450800  1
  Pd  Pd36  1  0.87846500  0.93240400  0.24868000  1
  Pd  Pd37  1  0.83582100  0.92473900  0.17989100  1
  Pd  Pd38  1  0.41996300  0.30791100  0.23830600  1
  Pd  Pd39  1  0.29432300  0.54923200  0.19026600  1
  Pd  Pd40  1  0.90980000  0.65675000  0.21814000  1
  Pd  Pd41  1  0.80448600  0.20039300  0.21043100  1
  Pd  Pd42  1  0.54459200  0.75237200  0.18444200  1
  Pd  Pd43  1  0.16969400  0.10477100  0.24412900  1
  Pd  Pd44  1  0.59275100  0.78954700  0.32010900  1
  Pd  Pd45  1  0.55010600  0.78188200  0.25132000  1
  Pd  Pd46  1  0.13424900  0.16505300  0.30973400  1
  Pd  Pd47  1  0.00860900  0.40637500  0.26169400  1
  Pd  Pd48  1  0.62408500  0.51389200  0.28956900  1
  Pd  Pd49  1  0.51877200  0.05753600  0.28186000  1
  Pd  Pd50  1  0.25887800  0.60951500  0.25587100  1
  Pd  Pd51  1  0.88397900  0.96191400  0.31555800  1
  Pd  Pd52  1  0.30703600  0.64669000  0.39153700  1
  Pd  Pd53  1  0.26439200  0.63902500  0.32274900  1
  Pd  Pd54  1  0.84853400  0.02219600  0.38116300  1
  Pd  Pd55  1  0.72289400  0.26351800  0.33312300  1
  Pd  Pd56  1  0.33837100  0.37103500  0.36099700  1
  Pd  Pd57  1  0.23305700  0.91467900  0.35328800  1
  Pd  Pd58  1  0.97316400  0.46665800  0.32729900  1
  Pd  Pd59  1  0.59826500  0.81905700  0.38698700  1
  Pd  Pd60  1  0.02132200  0.50383200  0.46296600  1
  Pd  Pd61  1  0.97867800  0.49616800  0.39417700  1
  Pd  Pd62  1  0.56282000  0.87933900  0.45259100  1
  Pd  Pd63  1  0.43718000  0.12066100  0.40455200  1
  Pd  Pd64  1  0.05265700  0.22817800  0.43242600  1
  Pd  Pd65  1  0.94734300  0.77182200  0.42471700  1
  Pd  Pd66  1  0.68744900  0.32380100  0.39872800  1
  Pd  Pd67  1  0.31255100  0.67619900  0.45841500  1
  Pd  Pd68  1  0.73560800  0.36097500  0.53439400  1
  Pd  Pd69  1  0.69296400  0.35331000  0.46560600  1
  Pd  Pd70  1  0.27710600  0.73648200  0.52402000  1
  Pd  Pd71  1  0.15146600  0.97780400  0.47598000  1
  Pd  Pd72  1  0.76694300  0.08532100  0.50385400  1
  Pd  Pd73  1  0.66162900  0.62896500  0.49614600  1
  Pd  Pd74  1  0.40173500  0.18094300  0.47015600  1
  Pd  Pd75  1  0.02683600  0.53334200  0.52984400  1
  Pd  Pd76  1  0.44989400  0.21811800  0.60582300  1
  Pd  Pd77  1  0.40724900  0.21045300  0.53703400  1
  Pd  Pd78  1  0.99139100  0.59362500  0.59544800  1
  Pd  Pd79  1  0.86575100  0.83494700  0.54740900  1
  Pd  Pd80  1  0.48122800  0.94246400  0.57528300  1
  Pd  Pd81  1  0.37591500  0.48610800  0.56757400  1
  Pd  Pd82  1  0.11602100  0.03808600  0.54158500  1
  Pd  Pd83  1  0.74112200  0.39048500  0.60127200  1
  Pd  Pd84  1  0.16417900  0.07526100  0.67725100  1
  Pd  Pd85  1  0.12153500  0.06759600  0.60846300  1
  Pd  Pd86  1  0.70567700  0.45076800  0.66687700  1
  Pd  Pd87  1  0.58003700  0.69208900  0.61883700  1
  Pd  Pd88  1  0.19551400  0.79960700  0.64671200  1
  Pd  Pd89  1  0.09020000  0.34325000  0.63900300  1
  Pd  Pd90  1  0.83030600  0.89522900  0.61301300  1
  Pd  Pd91  1  0.45540800  0.24762800  0.67270100  1
  Pd  Pd92  1  0.87846500  0.93240400  0.74868000  1
  Pd  Pd93  1  0.83582100  0.92473900  0.67989100  1
  Pd  Pd94  1  0.41996300  0.30791100  0.73830600  1
  Pd  Pd95  1  0.29432300  0.54923200  0.69026600  1
  Pd  Pd96  1  0.90980000  0.65675000  0.71814000  1
  Pd  Pd97  1  0.80448600  0.20039300  0.71043100  1
  Pd  Pd98  1  0.54459200  0.75237200  0.68444200  1
  Pd  Pd99  1  0.16969400  0.10477100  0.74412900  1
  Pd  Pd100  1  0.59275100  0.78954700  0.82010900  1
  Pd  Pd101  1  0.55010600  0.78188200  0.75132000  1
  Pd  Pd102  1  0.13424900  0.16505300  0.80973400  1
  Pd  Pd103  1  0.00860900  0.40637500  0.76169400  1
  Pd  Pd104  1  0.62408500  0.51389200  0.78956900  1
  Pd  Pd105  1  0.51877200  0.05753600  0.78186000  1
  Pd  Pd106  1  0.25887800  0.60951500  0.75587100  1
  Pd  Pd107  1  0.88397900  0.96191400  0.81555800  1
