# generated using pymatgen
data_Mg8Tl3
_symmetry_space_group_name_H-M   'P 1'
_cell_length_a   6.32911700
_cell_length_b   7.14576700
_cell_length_c   58.90696300
_cell_angle_alpha   90.00000000
_cell_angle_beta   90.00000000
_cell_angle_gamma   90.00000000
_symmetry_Int_Tables_number   1
_chemical_formula_structural   Mg8Tl3
_chemical_formula_sum   'Mg32 Tl12'
_cell_volume   2664.14960032
_cell_formula_units_Z   4
loop_
 _symmetry_equiv_pos_site_id
 _symmetry_equiv_pos_as_xyz
  1  'x, y, z'
loop_
 _atom_site_type_symbol
 _atom_site_label
 _atom_site_symmetry_multiplicity
 _atom_site_fract_x
 _atom_site_fract_y
 _atom_site_fract_z
 _atom_site_occupancy
  Mg  Mg0  1  0.25000000  0.50000000  0.49107100  1
  Mg  Mg1  1  0.75000000  0.50000000  0.49107100  1
  Mg  Mg2  1  0.50000000  0.66481900  0.38730900  1
  Mg  Mg3  1  0.25000000  0.50000000  0.43223100  1
  Mg  Mg4  1  0.75000000  0.00000000  0.36607100  1
  Mg  Mg5  1  0.50000000  0.16481900  0.46983400  1
  Mg  Mg6  1  1.00000000  0.83518100  0.46983400  1
  Mg  Mg7  1  0.25000000  0.00000000  0.42491100  1
  Mg  Mg8  1  0.75000000  0.00000000  0.42491100  1
  Mg  Mg9  1  0.75000000  0.50000000  0.43223100  1
  Mg  Mg10  1  0.00000000  0.33518100  0.38730900  1
  Mg  Mg11  1  0.25000000  0.00000000  0.36607100  1
  Mg  Mg12  1  1.00000000  0.16481900  0.51230900  1
  Mg  Mg13  1  0.75000000  0.00000000  0.55723100  1
  Mg  Mg14  1  0.25000000  0.50000000  0.74107100  1
  Mg  Mg15  1  1.00000000  0.66481900  0.59483400  1
  Mg  Mg16  1  0.50000000  0.33518100  0.59483400  1
  Mg  Mg17  1  0.75000000  0.50000000  0.54991100  1
  Mg  Mg18  1  0.25000000  0.50000000  0.54991100  1
  Mg  Mg19  1  0.25000000  0.00000000  0.55723100  1
  Mg  Mg20  1  0.50000000  0.83518100  0.51230900  1
  Mg  Mg21  1  0.75000000  0.50000000  0.74107100  1
  Mg  Mg22  1  0.50000000  0.66481900  0.63730900  1
  Mg  Mg23  1  0.25000000  0.50000000  0.68223100  1
  Mg  Mg24  1  0.75000000  0.00000000  0.61607100  1
  Mg  Mg25  1  0.50000000  0.16481900  0.71983400  1
  Mg  Mg26  1  1.00000000  0.83518100  0.71983400  1
  Mg  Mg27  1  0.25000000  0.00000000  0.67491100  1
  Mg  Mg28  1  0.75000000  0.00000000  0.67491100  1
  Mg  Mg29  1  0.75000000  0.50000000  0.68223100  1
  Mg  Mg30  1  0.00000000  0.33518100  0.63730900  1
  Mg  Mg31  1  0.25000000  0.00000000  0.61607100  1
  Tl  Tl32  1  1.00000000  0.23666200  0.46061400  1
  Tl  Tl33  1  0.00000000  0.73666200  0.39652900  1
  Tl  Tl34  1  0.50000000  0.76333800  0.46061400  1
  Tl  Tl35  1  0.50000000  0.26333800  0.39652900  1
  Tl  Tl36  1  0.50000000  0.73666200  0.58561400  1
  Tl  Tl37  1  0.50000000  0.23666200  0.52152900  1
  Tl  Tl38  1  0.00000000  0.26333800  0.58561400  1
  Tl  Tl39  1  0.00000000  0.76333800  0.52152900  1
  Tl  Tl40  1  1.00000000  0.23666200  0.71061400  1
  Tl  Tl41  1  0.00000000  0.73666200  0.64652900  1
  Tl  Tl42  1  0.50000000  0.76333800  0.71061400  1
  Tl  Tl43  1  0.50000000  0.26333800  0.64652900  1
