# generated using pymatgen
data_Yb3Mg
_symmetry_space_group_name_H-M   'P 1'
_cell_length_a   7.34873300
_cell_length_b   7.34873235
_cell_length_c   47.99860000
_cell_angle_alpha   90.00000000
_cell_angle_beta   90.00000000
_cell_angle_gamma   119.99999843
_symmetry_Int_Tables_number   1
_chemical_formula_structural   Yb3Mg
_chemical_formula_sum   'Yb30 Mg10'
_cell_volume   2244.83335847
_cell_formula_units_Z   10
loop_
 _symmetry_equiv_pos_site_id
 _symmetry_equiv_pos_as_xyz
  1  'x, y, z'
loop_
 _atom_site_type_symbol
 _atom_site_label
 _atom_site_symmetry_multiplicity
 _atom_site_fract_x
 _atom_site_fract_y
 _atom_site_fract_z
 _atom_site_occupancy
  Yb  Yb0  1  0.34034900  0.17017400  0.28125000  1
  Yb  Yb1  1  0.82982600  0.65965100  0.28125000  1
  Yb  Yb2  1  0.82982600  0.17017400  0.28125000  1
  Yb  Yb3  1  0.17017400  0.82982600  0.21875000  1
  Yb  Yb4  1  0.17017400  0.34034900  0.21875000  1
  Yb  Yb5  1  0.65965100  0.82982600  0.21875000  1
  Yb  Yb6  1  0.34034900  0.17017400  0.40625000  1
  Yb  Yb7  1  0.82982600  0.65965100  0.40625000  1
  Yb  Yb8  1  0.82982600  0.17017400  0.40625000  1
  Yb  Yb9  1  0.17017400  0.82982600  0.34375000  1
  Yb  Yb10  1  0.17017400  0.34034900  0.34375000  1
  Yb  Yb11  1  0.65965100  0.82982600  0.34375000  1
  Yb  Yb12  1  0.34034900  0.17017400  0.53125000  1
  Yb  Yb13  1  0.82982600  0.65965100  0.53125000  1
  Yb  Yb14  1  0.82982600  0.17017400  0.53125000  1
  Yb  Yb15  1  0.17017400  0.82982600  0.46875000  1
  Yb  Yb16  1  0.17017400  0.34034900  0.46875000  1
  Yb  Yb17  1  0.65965100  0.82982600  0.46875000  1
  Yb  Yb18  1  0.34034900  0.17017400  0.65625000  1
  Yb  Yb19  1  0.82982600  0.65965100  0.65625000  1
  Yb  Yb20  1  0.82982600  0.17017400  0.65625000  1
  Yb  Yb21  1  0.17017400  0.82982600  0.59375000  1
  Yb  Yb22  1  0.17017400  0.34034900  0.59375000  1
  Yb  Yb23  1  0.65965100  0.82982600  0.59375000  1
  Yb  Yb24  1  0.34034900  0.17017400  0.78125000  1
  Yb  Yb25  1  0.82982600  0.65965100  0.78125000  1
  Yb  Yb26  1  0.82982600  0.17017400  0.78125000  1
  Yb  Yb27  1  0.17017400  0.82982600  0.71875000  1
  Yb  Yb28  1  0.17017400  0.34034900  0.71875000  1
  Yb  Yb29  1  0.65965100  0.82982600  0.71875000  1
  Mg  Mg30  1  0.33333300  0.66666700  0.28125000  1
  Mg  Mg31  1  0.66666700  0.33333300  0.21875000  1
  Mg  Mg32  1  0.33333300  0.66666700  0.40625000  1
  Mg  Mg33  1  0.66666700  0.33333300  0.34375000  1
  Mg  Mg34  1  0.33333300  0.66666700  0.53125000  1
  Mg  Mg35  1  0.66666700  0.33333300  0.46875000  1
  Mg  Mg36  1  0.33333300  0.66666700  0.65625000  1
  Mg  Mg37  1  0.66666700  0.33333300  0.59375000  1
  Mg  Mg38  1  0.33333300  0.66666700  0.78125000  1
  Mg  Mg39  1  0.66666700  0.33333300  0.71875000  1
