# generated using pymatgen
data_Mg2Sc
_symmetry_space_group_name_H-M   'P 1'
_cell_length_a   3.25178700
_cell_length_b   8.45453079
_cell_length_c   41.66300500
_cell_angle_alpha   90.00000000
_cell_angle_beta   90.00000000
_cell_angle_gamma   101.08763903
_symmetry_Int_Tables_number   1
_chemical_formula_structural   Mg2Sc
_chemical_formula_sum   'Mg20 Sc10'
_cell_volume   1124.03313790
_cell_formula_units_Z   10
loop_
 _symmetry_equiv_pos_site_id
 _symmetry_equiv_pos_as_xyz
  1  'x, y, z'
loop_
 _atom_site_type_symbol
 _atom_site_label
 _atom_site_symmetry_multiplicity
 _atom_site_fract_x
 _atom_site_fract_y
 _atom_site_fract_z
 _atom_site_occupancy
  Mg  Mg0  1  0.89014400  0.78028800  0.21875000  1
  Mg  Mg1  1  0.22348200  0.44696300  0.21875000  1
  Mg  Mg2  1  0.10985600  0.21971200  0.28125000  1
  Mg  Mg3  1  0.77651800  0.55303700  0.28125000  1
  Mg  Mg4  1  0.89014400  0.78028800  0.34375000  1
  Mg  Mg5  1  0.22348200  0.44696300  0.34375000  1
  Mg  Mg6  1  0.10985600  0.21971200  0.40625000  1
  Mg  Mg7  1  0.77651800  0.55303700  0.40625000  1
  Mg  Mg8  1  0.89014400  0.78028800  0.46875000  1
  Mg  Mg9  1  0.22348200  0.44696300  0.46875000  1
  Mg  Mg10  1  0.10985600  0.21971200  0.53125000  1
  Mg  Mg11  1  0.77651800  0.55303700  0.53125000  1
  Mg  Mg12  1  0.89014400  0.78028800  0.59375000  1
  Mg  Mg13  1  0.22348200  0.44696300  0.59375000  1
  Mg  Mg14  1  0.10985600  0.21971200  0.65625000  1
  Mg  Mg15  1  0.77651800  0.55303700  0.65625000  1
  Mg  Mg16  1  0.89014400  0.78028800  0.71875000  1
  Mg  Mg17  1  0.22348200  0.44696300  0.71875000  1
  Mg  Mg18  1  0.10985600  0.21971200  0.78125000  1
  Mg  Mg19  1  0.77651800  0.55303700  0.78125000  1
  Sc  Sc20  1  0.55667800  0.11335700  0.21875000  1
  Sc  Sc21  1  0.44332200  0.88664300  0.28125000  1
  Sc  Sc22  1  0.55667800  0.11335700  0.34375000  1
  Sc  Sc23  1  0.44332200  0.88664300  0.40625000  1
  Sc  Sc24  1  0.55667800  0.11335700  0.46875000  1
  Sc  Sc25  1  0.44332200  0.88664300  0.53125000  1
  Sc  Sc26  1  0.55667800  0.11335700  0.59375000  1
  Sc  Sc27  1  0.44332200  0.88664300  0.65625000  1
  Sc  Sc28  1  0.55667800  0.11335700  0.71875000  1
  Sc  Sc29  1  0.44332200  0.88664300  0.78125000  1
