# generated using pymatgen
data_La4Mg
_symmetry_space_group_name_H-M   'P 1'
_cell_length_a   5.32060900
_cell_length_b   24.91303150
_cell_length_c   42.56487600
_cell_angle_alpha   96.12994132
_cell_angle_beta   90.00000000
_cell_angle_gamma   83.87005868
_symmetry_Int_Tables_number   1
_chemical_formula_structural   La4Mg
_chemical_formula_sum   'La80 Mg20'
_cell_volume   5577.37441684
_cell_formula_units_Z   20
loop_
 _symmetry_equiv_pos_site_id
 _symmetry_equiv_pos_as_xyz
  1  'x, y, z'
loop_
 _atom_site_type_symbol
 _atom_site_label
 _atom_site_symmetry_multiplicity
 _atom_site_fract_x
 _atom_site_fract_y
 _atom_site_fract_z
 _atom_site_occupancy
  La  La0  1  0.07998300  0.09003400  0.24000200  1
  La  La1  1  0.52663300  0.19673400  0.24667100  1
  La  La2  1  0.47336700  0.30326600  0.19082900  1
  La  La3  1  0.92001700  0.40996600  0.19749800  1
  La  La4  1  0.82998300  0.59003400  0.20875200  1
  La  La5  1  0.27663300  0.69673400  0.21542100  1
  La  La6  1  0.72336700  0.80326600  0.22207900  1
  La  La7  1  0.17001700  0.90996600  0.22874800  1
  La  La8  1  0.57998300  0.09003400  0.30250200  1
  La  La9  1  0.02663300  0.19673400  0.30917100  1
  La  La10  1  0.97336700  0.30326600  0.25332900  1
  La  La11  1  0.42001700  0.40996600  0.25999800  1
  La  La12  1  0.32998300  0.59003400  0.27125200  1
  La  La13  1  0.77663300  0.69673400  0.27792100  1
  La  La14  1  0.22336700  0.80326600  0.28457900  1
  La  La15  1  0.67001700  0.90996600  0.29124800  1
  La  La16  1  0.07998300  0.09003400  0.36500200  1
  La  La17  1  0.52663300  0.19673400  0.37167100  1
  La  La18  1  0.47336700  0.30326600  0.31582900  1
  La  La19  1  0.92001700  0.40996600  0.32249800  1
  La  La20  1  0.82998300  0.59003400  0.33375200  1
  La  La21  1  0.27663300  0.69673400  0.34042100  1
  La  La22  1  0.72336700  0.80326600  0.34707900  1
  La  La23  1  0.17001700  0.90996600  0.35374800  1
  La  La24  1  0.57998300  0.09003400  0.42750200  1
  La  La25  1  0.02663300  0.19673400  0.43417100  1
  La  La26  1  0.97336700  0.30326600  0.37832900  1
  La  La27  1  0.42001700  0.40996600  0.38499800  1
  La  La28  1  0.32998300  0.59003400  0.39625200  1
  La  La29  1  0.77663300  0.69673400  0.40292100  1
  La  La30  1  0.22336700  0.80326600  0.40957900  1
  La  La31  1  0.67001700  0.90996600  0.41624800  1
  La  La32  1  0.07998300  0.09003400  0.49000200  1
  La  La33  1  0.52663300  0.19673400  0.49667100  1
  La  La34  1  0.47336700  0.30326600  0.44082900  1
  La  La35  1  0.92001700  0.40996600  0.44749800  1
  La  La36  1  0.82998300  0.59003400  0.45875200  1
  La  La37  1  0.27663300  0.69673400  0.46542100  1
  La  La38  1  0.72336700  0.80326600  0.47207900  1
  La  La39  1  0.17001700  0.90996600  0.47874800  1
  La  La40  1  0.57998300  0.09003400  0.55250200  1
  La  La41  1  0.02663300  0.19673400  0.55917100  1
  La  La42  1  0.97336700  0.30326600  0.50332900  1
  La  La43  1  0.42001700  0.40996600  0.50999800  1
  La  La44  1  0.32998300  0.59003400  0.52125200  1
  La  La45  1  0.77663300  0.69673400  0.52792100  1
  La  La46  1  0.22336700  0.80326600  0.53457900  1
  La  La47  1  0.67001700  0.90996600  0.54124800  1
  La  La48  1  0.07998300  0.09003400  0.61500200  1
  La  La49  1  0.52663300  0.19673400  0.62167100  1
  La  La50  1  0.47336700  0.30326600  0.56582900  1
  La  La51  1  0.92001700  0.40996600  0.57249800  1
  La  La52  1  0.82998300  0.59003400  0.58375200  1
  La  La53  1  0.27663300  0.69673400  0.59042100  1
  La  La54  1  0.72336700  0.80326600  0.59707900  1
  La  La55  1  0.17001700  0.90996600  0.60374800  1
  La  La56  1  0.57998300  0.09003400  0.67750200  1
  La  La57  1  0.02663300  0.19673400  0.68417100  1
  La  La58  1  0.97336700  0.30326600  0.62832900  1
  La  La59  1  0.42001700  0.40996600  0.63499800  1
  La  La60  1  0.32998300  0.59003400  0.64625200  1
  La  La61  1  0.77663300  0.69673400  0.65292100  1
  La  La62  1  0.22336700  0.80326600  0.65957900  1
  La  La63  1  0.67001700  0.90996600  0.66624800  1
  La  La64  1  0.07998300  0.09003400  0.74000200  1
  La  La65  1  0.52663300  0.19673400  0.74667100  1
  La  La66  1  0.47336700  0.30326600  0.69082900  1
  La  La67  1  0.92001700  0.40996600  0.69749800  1
  La  La68  1  0.82998300  0.59003400  0.70875200  1
  La  La69  1  0.27663300  0.69673400  0.71542100  1
  La  La70  1  0.72336700  0.80326600  0.72207900  1
  La  La71  1  0.17001700  0.90996600  0.72874800  1
  La  La72  1  0.57998300  0.09003400  0.80250200  1
  La  La73  1  0.02663300  0.19673400  0.80917100  1
  La  La74  1  0.97336700  0.30326600  0.75332900  1
  La  La75  1  0.42001700  0.40996600  0.75999800  1
  La  La76  1  0.32998300  0.59003400  0.77125200  1
  La  La77  1  0.77663300  0.69673400  0.77792100  1
  La  La78  1  0.22336700  0.80326600  0.78457900  1
  La  La79  1  0.67001700  0.90996600  0.79124800  1
  Mg  Mg80  1  0.62500000  0.00000000  0.23437500  1
  Mg  Mg81  1  0.37500000  0.50000000  0.20312500  1
  Mg  Mg82  1  0.12500000  0.00000000  0.29687500  1
  Mg  Mg83  1  0.87500000  0.50000000  0.26562500  1
  Mg  Mg84  1  0.62500000  0.00000000  0.35937500  1
  Mg  Mg85  1  0.37500000  0.50000000  0.32812500  1
  Mg  Mg86  1  0.12500000  0.00000000  0.42187500  1
  Mg  Mg87  1  0.87500000  0.50000000  0.39062500  1
  Mg  Mg88  1  0.62500000  0.00000000  0.48437500  1
  Mg  Mg89  1  0.37500000  0.50000000  0.45312500  1
  Mg  Mg90  1  0.12500000  0.00000000  0.54687500  1
  Mg  Mg91  1  0.87500000  0.50000000  0.51562500  1
  Mg  Mg92  1  0.62500000  0.00000000  0.60937500  1
  Mg  Mg93  1  0.37500000  0.50000000  0.57812500  1
  Mg  Mg94  1  0.12500000  0.00000000  0.67187500  1
  Mg  Mg95  1  0.87500000  0.50000000  0.64062500  1
  Mg  Mg96  1  0.62500000  0.00000000  0.73437500  1
  Mg  Mg97  1  0.37500000  0.50000000  0.70312500  1
  Mg  Mg98  1  0.12500000  0.00000000  0.79687500  1
  Mg  Mg99  1  0.87500000  0.50000000  0.76562500  1
