# generated using pymatgen
data_Mg17Hg9
_symmetry_space_group_name_H-M   'P 1'
_cell_length_a   4.75496500
_cell_length_b   10.73367025
_cell_length_c   41.14994800
_cell_angle_alpha   87.73861022
_cell_angle_beta   90.00000000
_cell_angle_gamma   90.00000000
_symmetry_Int_Tables_number   1
_chemical_formula_structural   Mg17Hg9
_chemical_formula_sum   'Mg34 Hg18'
_cell_volume   2098.58473503
_cell_formula_units_Z   2
loop_
 _symmetry_equiv_pos_site_id
 _symmetry_equiv_pos_as_xyz
  1  'x, y, z'
loop_
 _atom_site_type_symbol
 _atom_site_label
 _atom_site_symmetry_multiplicity
 _atom_site_fract_x
 _atom_site_fract_y
 _atom_site_fract_z
 _atom_site_occupancy
  Mg  Mg0  1  0.25000000  0.30731500  0.27722700  1
  Mg  Mg1  1  0.75000000  0.09671700  0.30610600  1
  Mg  Mg2  1  0.75000000  0.37012900  0.33181000  1
  Mg  Mg3  1  0.25000000  0.65890400  0.37652300  1
  Mg  Mg4  1  0.75000000  0.13445000  0.38467400  1
  Mg  Mg5  1  0.25000000  0.89458200  0.32365900  1
  Mg  Mg6  1  0.25000000  0.93231500  0.40222700  1
  Mg  Mg7  1  0.75000000  0.72171700  0.43110600  1
  Mg  Mg8  1  0.25000000  0.35484000  0.38673200  1
  Mg  Mg9  1  0.75000000  0.67419200  0.32160100  1
  Mg  Mg10  1  0.75000000  0.99512900  0.45681000  1
  Mg  Mg11  1  0.25000000  0.28390400  0.50152300  1
  Mg  Mg12  1  0.75000000  0.75945000  0.50967400  1
  Mg  Mg13  1  0.25000000  0.51958200  0.44865900  1
  Mg  Mg14  1  0.25000000  0.55731500  0.52722700  1
  Mg  Mg15  1  0.75000000  0.34671700  0.55610600  1
  Mg  Mg16  1  0.25000000  0.97984000  0.51173200  1
  Mg  Mg17  1  0.75000000  0.29919200  0.44660100  1
  Mg  Mg18  1  0.75000000  0.62012900  0.58181000  1
  Mg  Mg19  1  0.25000000  0.90890400  0.62652300  1
  Mg  Mg20  1  0.75000000  0.38445000  0.63467400  1
  Mg  Mg21  1  0.25000000  0.14458200  0.57365900  1
  Mg  Mg22  1  0.25000000  0.18231500  0.65222700  1
  Mg  Mg23  1  0.75000000  0.97171700  0.68110600  1
  Mg  Mg24  1  0.25000000  0.60484000  0.63673200  1
  Mg  Mg25  1  0.75000000  0.92419200  0.57160100  1
  Mg  Mg26  1  0.75000000  0.24512900  0.70681000  1
  Mg  Mg27  1  0.25000000  0.53390400  0.75152300  1
  Mg  Mg28  1  0.75000000  0.00945000  0.75967400  1
  Mg  Mg29  1  0.25000000  0.76958200  0.69865900  1
  Mg  Mg30  1  0.25000000  0.80731500  0.77722700  1
  Mg  Mg31  1  0.75000000  0.59671700  0.80610600  1
  Mg  Mg32  1  0.25000000  0.22984000  0.76173200  1
  Mg  Mg33  1  0.75000000  0.54919200  0.69660100  1
  Hg  Hg34  1  0.75000000  0.87470700  0.27025700  1
  Hg  Hg35  1  0.25000000  0.52932600  0.31307600  1
  Hg  Hg36  1  0.75000000  0.49970700  0.39525700  1
  Hg  Hg37  1  0.25000000  0.15432600  0.43807600  1
  Hg  Hg38  1  0.75000000  0.86412900  0.36814200  1
  Hg  Hg39  1  0.25000000  0.16490300  0.34019200  1
  Hg  Hg40  1  0.75000000  0.12470700  0.52025700  1
  Hg  Hg41  1  0.25000000  0.77932600  0.56307600  1
  Hg  Hg42  1  0.75000000  0.48912900  0.49314200  1
  Hg  Hg43  1  0.25000000  0.78990300  0.46519200  1
  Hg  Hg44  1  0.75000000  0.74970700  0.64525700  1
  Hg  Hg45  1  0.25000000  0.40432600  0.68807600  1
  Hg  Hg46  1  0.75000000  0.11412900  0.61814200  1
  Hg  Hg47  1  0.25000000  0.41490300  0.59019200  1
  Hg  Hg48  1  0.75000000  0.37470700  0.77025700  1
  Hg  Hg49  1  0.25000000  0.02932600  0.81307600  1
  Hg  Hg50  1  0.75000000  0.73912900  0.74314200  1
  Hg  Hg51  1  0.25000000  0.03990300  0.71519200  1
