# generated using pymatgen
data_Ce17Mg8
_symmetry_space_group_name_H-M   'P 1'
_cell_length_a   5.24483100
_cell_length_b   9.39222165
_cell_length_c   43.65120100
_cell_angle_alpha   92.56125256
_cell_angle_beta   90.00000000
_cell_angle_gamma   90.00000000
_symmetry_Int_Tables_number   1
_chemical_formula_structural   Ce17Mg8
_chemical_formula_sum   'Ce34 Mg16'
_cell_volume   2148.13692483
_cell_formula_units_Z   2
loop_
 _symmetry_equiv_pos_site_id
 _symmetry_equiv_pos_as_xyz
  1  'x, y, z'
loop_
 _atom_site_type_symbol
 _atom_site_label
 _atom_site_symmetry_multiplicity
 _atom_site_fract_x
 _atom_site_fract_y
 _atom_site_fract_z
 _atom_site_occupancy
  Ce  Ce0  1  0.25000000  0.01217900  0.75263500  1
  Ce  Ce1  1  0.75000000  0.51163000  0.77117400  1
  Ce  Ce2  1  0.25000000  0.94075100  0.68120700  1
  Ce  Ce3  1  0.25000000  0.29885100  0.70498100  1
  Ce  Ce4  1  0.75000000  0.15353000  0.74740000  1
  Ce  Ce5  1  0.75000000  0.44020200  0.69974600  1
  Ce  Ce6  1  0.25000000  0.86932200  0.60977800  1
  Ce  Ce7  1  0.25000000  0.22742200  0.63355200  1
  Ce  Ce8  1  0.75000000  0.08210200  0.67597200  1
  Ce  Ce9  1  0.75000000  0.36877300  0.62831700  1
  Ce  Ce10  1  0.25000000  0.79789400  0.53835000  1
  Ce  Ce11  1  0.25000000  0.15599300  0.56212400  1
  Ce  Ce12  1  0.75000000  0.01067300  0.60454300  1
  Ce  Ce13  1  0.75000000  0.29734400  0.55688800  1
  Ce  Ce14  1  0.25000000  0.72646500  0.46692100  1
  Ce  Ce15  1  0.25000000  0.08456500  0.49069500  1
  Ce  Ce16  1  0.75000000  0.93924500  0.53311400  1
  Ce  Ce17  1  0.75000000  0.22591600  0.48546000  1
  Ce  Ce18  1  0.25000000  0.65503700  0.39549200  1
  Ce  Ce19  1  0.25000000  0.01313600  0.41926700  1
  Ce  Ce20  1  0.75000000  0.86781600  0.46168600  1
  Ce  Ce21  1  0.75000000  0.15448700  0.41403100  1
  Ce  Ce22  1  0.25000000  0.58360800  0.32406400  1
  Ce  Ce23  1  0.25000000  0.94170800  0.34783800  1
  Ce  Ce24  1  0.75000000  0.79638700  0.39025700  1
  Ce  Ce25  1  0.75000000  0.08305900  0.34260300  1
  Ce  Ce26  1  0.25000000  0.51217900  0.25263500  1
  Ce  Ce27  1  0.25000000  0.87027900  0.27640900  1
  Ce  Ce28  1  0.75000000  0.72495900  0.31882900  1
  Ce  Ce29  1  0.75000000  0.01163000  0.27117400  1
  Ce  Ce30  1  0.25000000  0.44075100  0.18120700  1
  Ce  Ce31  1  0.25000000  0.79885100  0.20498100  1
  Ce  Ce32  1  0.75000000  0.65353000  0.24740000  1
  Ce  Ce33  1  0.75000000  0.94020200  0.19974600  1
  Mg  Mg34  1  0.25000000  0.64719100  0.72911600  1
  Mg  Mg35  1  0.75000000  0.80519000  0.72326500  1
  Mg  Mg36  1  0.25000000  0.57576200  0.65768800  1
  Mg  Mg37  1  0.75000000  0.73376200  0.65183600  1
  Mg  Mg38  1  0.25000000  0.50433300  0.58625900  1
  Mg  Mg39  1  0.75000000  0.66233300  0.58040700  1
  Mg  Mg40  1  0.25000000  0.43290500  0.51483100  1
  Mg  Mg41  1  0.75000000  0.59090500  0.50897900  1
  Mg  Mg42  1  0.25000000  0.36147600  0.44340200  1
  Mg  Mg43  1  0.75000000  0.51947600  0.43755000  1
  Mg  Mg44  1  0.25000000  0.29004800  0.37197400  1
  Mg  Mg45  1  0.75000000  0.44804800  0.36612200  1
  Mg  Mg46  1  0.25000000  0.21861900  0.30054500  1
  Mg  Mg47  1  0.75000000  0.37661900  0.29469300  1
  Mg  Mg48  1  0.25000000  0.14719100  0.22911600  1
  Mg  Mg49  1  0.75000000  0.30519000  0.22326500  1
