# generated using pymatgen
data_Ho9Mg19
_symmetry_space_group_name_H-M   'P 1'
_cell_length_a   6.02206700
_cell_length_b   8.51648800
_cell_length_c   48.17653300
_cell_angle_alpha   90.00000000
_cell_angle_beta   90.00000000
_cell_angle_gamma   90.00000000
_symmetry_Int_Tables_number   1
_chemical_formula_structural   Ho9Mg19
_chemical_formula_sum   'Ho18 Mg38'
_cell_volume   2470.82316785
_cell_formula_units_Z   2
loop_
 _symmetry_equiv_pos_site_id
 _symmetry_equiv_pos_as_xyz
  1  'x, y, z'
loop_
 _atom_site_type_symbol
 _atom_site_label
 _atom_site_symmetry_multiplicity
 _atom_site_fract_x
 _atom_site_fract_y
 _atom_site_fract_z
 _atom_site_occupancy
  Ho  Ho0  1  0.37500000  0.25000000  0.29166700  1
  Ho  Ho1  1  0.87500000  0.00000000  0.29166700  1
  Ho  Ho2  1  0.87500000  0.75000000  0.22916700  1
  Ho  Ho3  1  0.37500000  0.50000000  0.22916700  1
  Ho  Ho4  1  0.37500000  0.25000000  0.41666700  1
  Ho  Ho5  1  0.87500000  0.00000000  0.41666700  1
  Ho  Ho6  1  0.87500000  0.75000000  0.35416700  1
  Ho  Ho7  1  0.37500000  0.50000000  0.35416700  1
  Ho  Ho8  1  0.37500000  0.25000000  0.54166700  1
  Ho  Ho9  1  0.87500000  0.00000000  0.54166700  1
  Ho  Ho10  1  0.87500000  0.75000000  0.47916700  1
  Ho  Ho11  1  0.37500000  0.50000000  0.47916700  1
  Ho  Ho12  1  0.37500000  0.25000000  0.66666700  1
  Ho  Ho13  1  0.87500000  0.00000000  0.66666700  1
  Ho  Ho14  1  0.87500000  0.75000000  0.60416700  1
  Ho  Ho15  1  0.37500000  0.50000000  0.60416700  1
  Ho  Ho16  1  0.87500000  0.75000000  0.72916700  1
  Ho  Ho17  1  0.37500000  0.50000000  0.72916700  1
  Mg  Mg18  1  0.87500000  0.37500000  0.19791700  1
  Mg  Mg19  1  0.87500000  0.37500000  0.26041700  1
  Mg  Mg20  1  0.62500000  0.12500000  0.22916700  1
  Mg  Mg21  1  0.12500000  0.12500000  0.22916700  1
  Mg  Mg22  1  0.37500000  0.87500000  0.26041700  1
  Mg  Mg23  1  0.37500000  0.87500000  0.19791700  1
  Mg  Mg24  1  0.12500000  0.62500000  0.29166700  1
  Mg  Mg25  1  0.62500000  0.62500000  0.29166700  1
  Mg  Mg26  1  0.87500000  0.37500000  0.32291700  1
  Mg  Mg27  1  0.87500000  0.37500000  0.38541700  1
  Mg  Mg28  1  0.62500000  0.12500000  0.35416700  1
  Mg  Mg29  1  0.12500000  0.12500000  0.35416700  1
  Mg  Mg30  1  0.37500000  0.87500000  0.38541700  1
  Mg  Mg31  1  0.37500000  0.87500000  0.32291700  1
  Mg  Mg32  1  0.12500000  0.62500000  0.41666700  1
  Mg  Mg33  1  0.62500000  0.62500000  0.41666700  1
  Mg  Mg34  1  0.87500000  0.37500000  0.44791700  1
  Mg  Mg35  1  0.87500000  0.37500000  0.51041700  1
  Mg  Mg36  1  0.62500000  0.12500000  0.47916700  1
  Mg  Mg37  1  0.12500000  0.12500000  0.47916700  1
  Mg  Mg38  1  0.37500000  0.87500000  0.51041700  1
  Mg  Mg39  1  0.37500000  0.87500000  0.44791700  1
  Mg  Mg40  1  0.12500000  0.62500000  0.54166700  1
  Mg  Mg41  1  0.62500000  0.62500000  0.54166700  1
  Mg  Mg42  1  0.87500000  0.37500000  0.57291700  1
  Mg  Mg43  1  0.87500000  0.37500000  0.63541700  1
  Mg  Mg44  1  0.62500000  0.12500000  0.60416700  1
  Mg  Mg45  1  0.12500000  0.12500000  0.60416700  1
  Mg  Mg46  1  0.37500000  0.87500000  0.63541700  1
  Mg  Mg47  1  0.37500000  0.87500000  0.57291700  1
  Mg  Mg48  1  0.12500000  0.62500000  0.66666700  1
  Mg  Mg49  1  0.62500000  0.62500000  0.66666700  1
  Mg  Mg50  1  0.87500000  0.37500000  0.69791700  1
  Mg  Mg51  1  0.87500000  0.37500000  0.76041700  1
  Mg  Mg52  1  0.62500000  0.12500000  0.72916700  1
  Mg  Mg53  1  0.12500000  0.12500000  0.72916700  1
  Mg  Mg54  1  0.37500000  0.87500000  0.76041700  1
  Mg  Mg55  1  0.37500000  0.87500000  0.69791700  1
