# generated using pymatgen
data_Mg40Ir59
_symmetry_space_group_name_H-M   'P 1'
_cell_length_a   5.24707500
_cell_length_b   8.54477426
_cell_length_c   55.75889500
_cell_angle_alpha   88.31672616
_cell_angle_beta   90.00000000
_cell_angle_gamma   90.00000000
_symmetry_Int_Tables_number   1
_chemical_formula_structural   Mg40Ir59
_chemical_formula_sum   'Mg40 Ir59'
_cell_volume   2498.87525280
_cell_formula_units_Z   1
loop_
 _symmetry_equiv_pos_site_id
 _symmetry_equiv_pos_as_xyz
  1  'x, y, z'
loop_
 _atom_site_type_symbol
 _atom_site_label
 _atom_site_symmetry_multiplicity
 _atom_site_fract_x
 _atom_site_fract_y
 _atom_site_fract_z
 _atom_site_occupancy
  Mg  Mg0  1  0.50000000  0.84555500  0.23662100  1
  Mg  Mg1  1  0.00000000  0.99478900  0.25671200  1
  Mg  Mg2  1  1.00000000  0.47172400  0.31181100  1
  Mg  Mg3  1  0.50000000  0.36862000  0.18152200  1
  Mg  Mg4  1  0.50000000  0.48925100  0.23308000  1
  Mg  Mg5  1  0.00000000  0.35109300  0.26025300  1
  Mg  Mg6  1  0.50000000  0.97549200  0.18923300  1
  Mg  Mg7  1  1.00000000  0.86485200  0.30410000  1
  Mg  Mg8  1  0.50000000  0.66240700  0.32298900  1
  Mg  Mg9  1  0.00000000  0.17793700  0.17034400  1
  Mg  Mg10  1  0.00000000  0.67888800  0.40328800  1
  Mg  Mg11  1  0.50000000  0.82812200  0.42337900  1
  Mg  Mg12  1  0.50000000  0.30505700  0.47847800  1
  Mg  Mg13  1  0.00000000  0.20195400  0.34818900  1
  Mg  Mg14  1  0.00000000  0.32258400  0.39974700  1
  Mg  Mg15  1  0.50000000  0.18442700  0.42692000  1
  Mg  Mg16  1  0.00000000  0.80882600  0.35590000  1
  Mg  Mg17  1  0.50000000  0.69818500  0.47076700  1
  Mg  Mg18  1  1.00000000  0.49574000  0.48965600  1
  Mg  Mg19  1  0.50000000  0.01127000  0.33701100  1
  Mg  Mg20  1  0.50000000  0.51222200  0.56995500  1
  Mg  Mg21  1  1.00000000  0.66145600  0.59004500  1
  Mg  Mg22  1  0.00000000  0.13839000  0.64514400  1
  Mg  Mg23  1  0.50000000  0.03528700  0.51485600  1
  Mg  Mg24  1  0.50000000  0.15591700  0.56641300  1
  Mg  Mg25  1  0.00000000  0.01776000  0.59358700  1
  Mg  Mg26  1  0.50000000  0.64215900  0.52256700  1
  Mg  Mg27  1  0.00000000  0.53151800  0.63743300  1
  Mg  Mg28  1  0.50000000  0.32907400  0.65632300  1
  Mg  Mg29  1  0.00000000  0.84460400  0.50367700  1
  Mg  Mg30  1  0.00000000  0.34555500  0.73662100  1
  Mg  Mg31  1  0.50000000  0.49478900  0.75671200  1
  Mg  Mg32  1  0.50000000  0.97172400  0.81181100  1
  Mg  Mg33  1  1.00000000  0.86862000  0.68152200  1
  Mg  Mg34  1  1.00000000  0.98925100  0.73308000  1
  Mg  Mg35  1  0.50000000  0.85109300  0.76025300  1
  Mg  Mg36  1  0.00000000  0.47549200  0.68923300  1
  Mg  Mg37  1  0.50000000  0.36485200  0.80410000  1
  Mg  Mg38  1  0.00000000  0.16240700  0.82298900  1
  Mg  Mg39  1  0.50000000  0.67793700  0.67034400  1
  Ir  Ir40  1  0.00000000  0.93147700  0.20704100  1
  Ir  Ir41  1  0.50000000  0.90886700  0.28629300  1
  Ir  Ir42  1  0.24951300  0.66329200  0.27401900  1
  Ir  Ir43  1  0.25048700  0.17705200  0.21931500  1
  Ir  Ir44  1  0.74951300  0.17705200  0.21931500  1
  Ir  Ir45  1  0.75048700  0.66329200  0.27401900  1
  Ir  Ir46  1  1.00000000  0.17017200  0.49666700  1
  Ir  Ir47  1  0.50000000  0.16580400  0.25801200  1
  Ir  Ir48  1  0.00000000  0.67454000  0.23532100  1
  Ir  Ir49  1  0.50000000  0.41523000  0.28472400  1
  Ir  Ir50  1  0.00000000  0.42511400  0.20860900  1
  Ir  Ir51  1  0.26606200  0.67734200  0.19358900  1
  Ir  Ir52  1  0.23393800  0.16300200  0.29974400  1
  Ir  Ir53  1  0.76606200  0.16300200  0.29974400  1
  Ir  Ir54  1  0.73393800  0.67734200  0.19358900  1
  Ir  Ir55  1  0.50000000  0.76481100  0.37370700  1
  Ir  Ir56  1  0.00000000  0.74220000  0.45295900  1
  Ir  Ir57  1  0.74951300  0.49662500  0.44068500  1
  Ir  Ir58  1  0.75048700  0.01038500  0.38598100  1
  Ir  Ir59  1  0.24951300  0.01038500  0.38598100  1
  Ir  Ir60  1  0.25048700  0.49662500  0.44068500  1
  Ir  Ir61  1  0.50000000  0.33683900  0.33000000  1
  Ir  Ir62  1  0.00000000  0.99913700  0.42467900  1
  Ir  Ir63  1  0.50000000  0.50787400  0.40198800  1
  Ir  Ir64  1  0.00000000  0.24856300  0.45139100  1
  Ir  Ir65  1  0.50000000  0.25844700  0.37527600  1
  Ir  Ir66  1  0.76606200  0.51067600  0.36025600  1
  Ir  Ir67  1  0.73393800  0.99633500  0.46641100  1
  Ir  Ir68  1  0.26606200  0.99633500  0.46641100  1
  Ir  Ir69  1  0.23393800  0.51067600  0.36025600  1
  Ir  Ir70  1  1.00000000  0.59814400  0.54037400  1
  Ir  Ir71  1  0.50000000  0.57553300  0.61962600  1
  Ir  Ir72  1  0.24951300  0.32995900  0.60735200  1
  Ir  Ir73  1  0.25048700  0.84371900  0.55264800  1
  Ir  Ir74  1  0.74951300  0.84371900  0.55264800  1
  Ir  Ir75  1  0.75048700  0.32995900  0.60735200  1
  Ir  Ir76  1  0.50000000  0.83247000  0.59134500  1
  Ir  Ir77  1  1.00000000  0.34120700  0.56865500  1
  Ir  Ir78  1  0.50000000  0.08189700  0.61805700  1
  Ir  Ir79  1  1.00000000  0.09178100  0.54194300  1
  Ir  Ir80  1  0.26606200  0.34400900  0.52692300  1
  Ir  Ir81  1  0.23393800  0.82966800  0.63307700  1
  Ir  Ir82  1  0.76606200  0.82966800  0.63307700  1
  Ir  Ir83  1  0.73393800  0.34400900  0.52692300  1
  Ir  Ir84  1  0.50000000  0.43147700  0.70704100  1
  Ir  Ir85  1  0.00000000  0.40886700  0.78629300  1
  Ir  Ir86  1  0.74951300  0.16329200  0.77401900  1
  Ir  Ir87  1  0.75048700  0.67705200  0.71931500  1
  Ir  Ir88  1  0.24951300  0.67705200  0.71931500  1
  Ir  Ir89  1  0.25048700  0.16329200  0.77401900  1
  Ir  Ir90  1  0.50000000  0.00350500  0.66333300  1
  Ir  Ir91  1  0.00000000  0.66580400  0.75801200  1
  Ir  Ir92  1  0.50000000  0.17454000  0.73532100  1
  Ir  Ir93  1  0.00000000  0.91523000  0.78472400  1
  Ir  Ir94  1  0.50000000  0.92511400  0.70860900  1
  Ir  Ir95  1  0.76606200  0.17734200  0.69358900  1
  Ir  Ir96  1  0.73393800  0.66300200  0.79974400  1
  Ir  Ir97  1  0.26606200  0.66300200  0.79974400  1
  Ir  Ir98  1  0.23393800  0.17734200  0.69358900  1
