# generated using pymatgen
data_Mg4Pd11
_symmetry_space_group_name_H-M   'P 1'
_cell_length_a   3.99223900
_cell_length_b   3.99223900
_cell_length_c   47.32967000
_cell_angle_alpha   90.00000000
_cell_angle_beta   90.00000000
_cell_angle_gamma   90.00000000
_symmetry_Int_Tables_number   1
_chemical_formula_structural   Mg4Pd11
_chemical_formula_sum   'Mg8 Pd22'
_cell_volume   754.33896626
_cell_formula_units_Z   2
loop_
 _symmetry_equiv_pos_site_id
 _symmetry_equiv_pos_as_xyz
  1  'x, y, z'
loop_
 _atom_site_type_symbol
 _atom_site_label
 _atom_site_symmetry_multiplicity
 _atom_site_fract_x
 _atom_site_fract_y
 _atom_site_fract_z
 _atom_site_occupancy
  Mg  Mg0  1  0.50000000  0.50000000  0.27126400  1
  Mg  Mg1  1  0.00000000  0.00000000  0.18707000  1
  Mg  Mg2  1  0.00000000  0.00000000  0.43793000  1
  Mg  Mg3  1  0.50000000  0.50000000  0.35373600  1
  Mg  Mg4  1  0.50000000  0.50000000  0.60459700  1
  Mg  Mg5  1  0.00000000  0.00000000  0.52040300  1
  Mg  Mg6  1  0.00000000  0.00000000  0.77126400  1
  Mg  Mg7  1  0.50000000  0.50000000  0.68707000  1
  Pd  Pd8  1  0.00000000  0.50000000  0.47916700  1
  Pd  Pd9  1  0.50000000  0.00000000  0.47916700  1
  Pd  Pd10  1  0.50000000  0.00000000  0.22916700  1
  Pd  Pd11  1  0.00000000  0.50000000  0.22916700  1
  Pd  Pd12  1  0.50000000  0.50000000  0.18742100  1
  Pd  Pd13  1  0.00000000  0.00000000  0.27091200  1
  Pd  Pd14  1  0.50000000  0.00000000  0.31250000  1
  Pd  Pd15  1  0.00000000  0.50000000  0.31250000  1
  Pd  Pd16  1  0.00000000  0.50000000  0.39583300  1
  Pd  Pd17  1  0.50000000  0.00000000  0.39583300  1
  Pd  Pd18  1  0.00000000  0.00000000  0.35408800  1
  Pd  Pd19  1  0.50000000  0.50000000  0.43757900  1
  Pd  Pd20  1  0.50000000  0.00000000  0.56250000  1
  Pd  Pd21  1  0.00000000  0.50000000  0.56250000  1
  Pd  Pd22  1  0.50000000  0.50000000  0.52075400  1
  Pd  Pd23  1  0.00000000  0.00000000  0.60424600  1
  Pd  Pd24  1  0.50000000  0.00000000  0.64583300  1
  Pd  Pd25  1  0.00000000  0.50000000  0.64583300  1
  Pd  Pd26  1  0.00000000  0.50000000  0.72916700  1
  Pd  Pd27  1  0.50000000  0.00000000  0.72916700  1
  Pd  Pd28  1  0.00000000  0.00000000  0.68742100  1
  Pd  Pd29  1  0.50000000  0.50000000  0.77091200  1
