# generated using pymatgen
data_Mg23Ga10
_symmetry_space_group_name_H-M   'P 1'
_cell_length_a   6.82567400
_cell_length_b   8.32987963
_cell_length_c   44.97897400
_cell_angle_alpha   95.18614183
_cell_angle_beta   90.00000000
_cell_angle_gamma   114.18663396
_symmetry_Int_Tables_number   1
_chemical_formula_structural   Mg23Ga10
_chemical_formula_sum   'Mg46 Ga20'
_cell_volume   2321.39307391
_cell_formula_units_Z   2
loop_
 _symmetry_equiv_pos_site_id
 _symmetry_equiv_pos_as_xyz
  1  'x, y, z'
loop_
 _atom_site_type_symbol
 _atom_site_label
 _atom_site_symmetry_multiplicity
 _atom_site_fract_x
 _atom_site_fract_y
 _atom_site_fract_z
 _atom_site_occupancy
  Mg  Mg0  1  0.63276300  0.95467000  0.75752200  1
  Mg  Mg1  1  0.46660000  0.24405600  0.77819200  1
  Mg  Mg2  1  0.83995700  0.36905600  0.71569200  1
  Mg  Mg3  1  0.38440700  0.07967000  0.69502200  1
  Mg  Mg4  1  0.01843200  0.03686300  0.79910700  1
  Mg  Mg5  1  0.08093200  0.16186300  0.73660700  1
  Mg  Mg6  1  0.81308000  0.62615900  0.76977100  1
  Mg  Mg7  1  0.34878300  0.69756700  0.70344300  1
  Mg  Mg8  1  0.28628300  0.57256700  0.76594300  1
  Mg  Mg9  1  0.87558000  0.75115900  0.70727100  1
  Mg  Mg10  1  0.75776300  0.20467000  0.63252200  1
  Mg  Mg11  1  0.59160000  0.49405600  0.65319200  1
  Mg  Mg12  1  0.96495700  0.61905600  0.59069200  1
  Mg  Mg13  1  0.50940700  0.32967000  0.57002200  1
  Mg  Mg14  1  0.14343200  0.28686300  0.67410700  1
  Mg  Mg15  1  0.20593200  0.41186300  0.61160700  1
  Mg  Mg16  1  0.93808000  0.87615900  0.64477100  1
  Mg  Mg17  1  0.47378300  0.94756700  0.57844300  1
  Mg  Mg18  1  0.41128300  0.82256700  0.64094300  1
  Mg  Mg19  1  0.00058000  0.00115900  0.58227100  1
  Mg  Mg20  1  0.88276300  0.45467000  0.50752200  1
  Mg  Mg21  1  0.71660000  0.74405600  0.52819200  1
  Mg  Mg22  1  0.08995700  0.86905600  0.46569200  1
  Mg  Mg23  1  0.63440700  0.57967000  0.44502200  1
  Mg  Mg24  1  0.26843200  0.53686300  0.54910700  1
  Mg  Mg25  1  0.33093200  0.66186300  0.48660700  1
  Mg  Mg26  1  0.06308000  0.12615900  0.51977100  1
  Mg  Mg27  1  0.59878300  0.19756700  0.45344300  1
  Mg  Mg28  1  0.53628300  0.07256700  0.51594300  1
  Mg  Mg29  1  0.12558000  0.25115900  0.45727100  1
  Mg  Mg30  1  0.00776300  0.70467000  0.38252200  1
  Mg  Mg31  1  0.84160000  0.99405600  0.40319200  1
  Mg  Mg32  1  0.21495700  0.11905600  0.34069200  1
  Mg  Mg33  1  0.75940700  0.82967000  0.32002200  1
  Mg  Mg34  1  0.39343200  0.78686300  0.42410700  1
  Mg  Mg35  1  0.45593200  0.91186300  0.36160700  1
  Mg  Mg36  1  0.18808000  0.37615900  0.39477100  1
  Mg  Mg37  1  0.72378300  0.44756700  0.32844300  1
  Mg  Mg38  1  0.66128300  0.32256700  0.39094300  1
  Mg  Mg39  1  0.25058000  0.50115900  0.33227100  1
  Mg  Mg40  1  0.13276300  0.95467000  0.25752200  1
  Mg  Mg41  1  0.96660000  0.24405600  0.27819200  1
  Mg  Mg42  1  0.51843200  0.03686300  0.29910700  1
  Mg  Mg43  1  0.58093200  0.16186300  0.23660700  1
  Mg  Mg44  1  0.31308000  0.62615900  0.26977100  1
  Mg  Mg45  1  0.78628300  0.57256700  0.26594300  1
  Ga  Ga46  1  0.20200400  0.88514000  0.75255500  1
  Ga  Ga47  1  0.89735900  0.31358600  0.78315900  1
  Ga  Ga48  1  0.47872700  0.43858600  0.72065900  1
  Ga  Ga49  1  0.62063600  0.76014000  0.81505500  1
  Ga  Ga50  1  0.32700400  0.13514000  0.62755500  1
  Ga  Ga51  1  0.02235900  0.56358600  0.65815900  1
  Ga  Ga52  1  0.60372700  0.68858600  0.59565900  1
  Ga  Ga53  1  0.74563600  0.01014000  0.69005500  1
  Ga  Ga54  1  0.45200400  0.38514000  0.50255500  1
  Ga  Ga55  1  0.14735900  0.81358600  0.53315900  1
  Ga  Ga56  1  0.72872700  0.93858600  0.47065900  1
  Ga  Ga57  1  0.87063600  0.26014000  0.56505500  1
  Ga  Ga58  1  0.57700400  0.63514000  0.37755500  1
  Ga  Ga59  1  0.27235900  0.06358600  0.40815900  1
  Ga  Ga60  1  0.85372700  0.18858600  0.34565900  1
  Ga  Ga61  1  0.99563600  0.51014000  0.44005500  1
  Ga  Ga62  1  0.70200400  0.88514000  0.25255500  1
  Ga  Ga63  1  0.39735900  0.31358600  0.28315900  1
  Ga  Ga64  1  0.97872700  0.43858600  0.22065900  1
  Ga  Ga65  1  0.12063600  0.76014000  0.31505500  1
