# generated using pymatgen
data_Tb22Mg7
_symmetry_space_group_name_H-M   'P 1'
_cell_length_a   3.54692000
_cell_length_b   10.19123257
_cell_length_c   43.44398300
_cell_angle_alpha   84.27392277
_cell_angle_beta   90.00000000
_cell_angle_gamma   90.00000000
_symmetry_Int_Tables_number   1
_chemical_formula_structural   Tb22Mg7
_chemical_formula_sum   'Tb22 Mg7'
_cell_volume   1562.55495751
_cell_formula_units_Z   1
loop_
 _symmetry_equiv_pos_site_id
 _symmetry_equiv_pos_as_xyz
  1  'x, y, z'
loop_
 _atom_site_type_symbol
 _atom_site_label
 _atom_site_symmetry_multiplicity
 _atom_site_fract_x
 _atom_site_fract_y
 _atom_site_fract_z
 _atom_site_occupancy
  Tb  Tb0  1  0.50000000  0.62739400  0.26061600  1
  Tb  Tb1  1  0.00000000  0.48177000  0.20192300  1
  Tb  Tb2  1  0.50000000  0.18230000  0.22015300  1
  Tb  Tb3  1  0.50000000  0.47354800  0.33753900  1
  Tb  Tb4  1  0.00000000  0.32792400  0.27884600  1
  Tb  Tb5  1  0.50000000  0.02845400  0.29707600  1
  Tb  Tb6  1  0.50000000  0.31970200  0.41446200  1
  Tb  Tb7  1  0.00000000  0.17407800  0.35576900  1
  Tb  Tb8  1  0.50000000  0.87460700  0.37399900  1
  Tb  Tb9  1  0.50000000  0.16585600  0.49138500  1
  Tb  Tb10  1  0.00000000  0.02023200  0.43269200  1
  Tb  Tb11  1  0.50000000  0.72076100  0.45092200  1
  Tb  Tb12  1  0.50000000  0.01201000  0.56830800  1
  Tb  Tb13  1  0.00000000  0.86638500  0.50961500  1
  Tb  Tb14  1  0.50000000  0.56691500  0.52784500  1
  Tb  Tb15  1  0.50000000  0.85816300  0.64523200  1
  Tb  Tb16  1  1.00000000  0.71253900  0.58653800  1
  Tb  Tb17  1  0.50000000  0.41306900  0.60476800  1
  Tb  Tb18  1  0.50000000  0.70431700  0.72215500  1
  Tb  Tb19  1  0.00000000  0.55869300  0.66346200  1
  Tb  Tb20  1  0.50000000  0.25922300  0.68169200  1
  Tb  Tb21  1  0.00000000  0.40484700  0.74038500  1
  Mg  Mg22  1  0.00000000  0.90484700  0.24038500  1
  Mg  Mg23  1  0.00000000  0.75100100  0.31730800  1
  Mg  Mg24  1  0.00000000  0.59715500  0.39423100  1
  Mg  Mg25  1  0.00000000  0.44330800  0.47115400  1
  Mg  Mg26  1  0.00000000  0.28946200  0.54807700  1
  Mg  Mg27  1  0.00000000  0.13561600  0.62500000  1
  Mg  Mg28  1  0.00000000  0.98177000  0.70192300  1
