# generated using pymatgen
data_MgB4
_symmetry_space_group_name_H-M   'P 1'
_cell_length_a   4.39738600
_cell_length_b   5.48489200
_cell_length_c   51.99078400
_cell_angle_alpha   90.00000000
_cell_angle_beta   90.00000000
_cell_angle_gamma   90.00000000
_symmetry_Int_Tables_number   1
_chemical_formula_structural   MgB4
_chemical_formula_sum   'Mg16 B64'
_cell_volume   1253.97545677
_cell_formula_units_Z   16
loop_
 _symmetry_equiv_pos_site_id
 _symmetry_equiv_pos_as_xyz
  1  'x, y, z'
loop_
 _atom_site_type_symbol
 _atom_site_label
 _atom_site_symmetry_multiplicity
 _atom_site_fract_x
 _atom_site_fract_y
 _atom_site_fract_z
 _atom_site_occupancy
  Mg  Mg0  1  0.75000000  0.45432300  0.30539800  1
  Mg  Mg1  1  0.25000000  0.54567700  0.26603100  1
  Mg  Mg2  1  0.75000000  0.95432300  0.33745900  1
  Mg  Mg3  1  0.25000000  0.04567700  0.23396900  1
  Mg  Mg4  1  0.75000000  0.45432300  0.44825500  1
  Mg  Mg5  1  0.25000000  0.54567700  0.40888800  1
  Mg  Mg6  1  0.75000000  0.95432300  0.48031600  1
  Mg  Mg7  1  0.25000000  0.04567700  0.37682700  1
  Mg  Mg8  1  0.75000000  0.45432300  0.59111200  1
  Mg  Mg9  1  0.25000000  0.54567700  0.55174500  1
  Mg  Mg10  1  0.75000000  0.95432300  0.62317300  1
  Mg  Mg11  1  0.25000000  0.04567700  0.51968400  1
  Mg  Mg12  1  0.75000000  0.45432300  0.73396900  1
  Mg  Mg13  1  0.25000000  0.54567700  0.69460200  1
  Mg  Mg14  1  0.75000000  0.95432300  0.76603100  1
  Mg  Mg15  1  0.25000000  0.04567700  0.66254100  1
  B  B16  1  0.75000000  0.77761600  0.23624100  1
  B  B17  1  0.25000000  0.22238400  0.33518700  1
  B  B18  1  0.75000000  0.27761600  0.26375900  1
  B  B19  1  0.25000000  0.72238400  0.30767000  1
  B  B20  1  0.75000000  0.94662700  0.26472300  1
  B  B21  1  0.25000000  0.05337300  0.30670600  1
  B  B22  1  0.75000000  0.44662700  0.23527700  1
  B  B23  1  0.25000000  0.55337300  0.33615100  1
  B  B24  1  0.94199500  0.36767100  0.34811100  1
  B  B25  1  0.44199500  0.63232900  0.22331700  1
  B  B26  1  0.55800500  0.86767100  0.29474600  1
  B  B27  1  0.05800500  0.13232900  0.27668300  1
  B  B28  1  0.05800500  0.63232900  0.22331700  1
  B  B29  1  0.55800500  0.36767100  0.34811100  1
  B  B30  1  0.44199500  0.13232900  0.27668300  1
  B  B31  1  0.94199500  0.86767100  0.29474600  1
  B  B32  1  0.75000000  0.77761600  0.37909800  1
  B  B33  1  0.25000000  0.22238400  0.47804400  1
  B  B34  1  0.75000000  0.27761600  0.40661600  1
  B  B35  1  0.25000000  0.72238400  0.45052700  1
  B  B36  1  0.75000000  0.94662700  0.40758000  1
  B  B37  1  0.25000000  0.05337300  0.44956300  1
  B  B38  1  0.75000000  0.44662700  0.37813400  1
  B  B39  1  0.25000000  0.55337300  0.47900800  1
  B  B40  1  0.94199500  0.36767100  0.49096900  1
  B  B41  1  0.44199500  0.63232900  0.36617400  1
  B  B42  1  0.55800500  0.86767100  0.43760300  1
  B  B43  1  0.05800500  0.13232900  0.41954000  1
  B  B44  1  0.05800500  0.63232900  0.36617400  1
  B  B45  1  0.55800500  0.36767100  0.49096900  1
  B  B46  1  0.44199500  0.13232900  0.41954000  1
  B  B47  1  0.94199500  0.86767100  0.43760300  1
  B  B48  1  0.75000000  0.77761600  0.52195600  1
  B  B49  1  0.25000000  0.22238400  0.62090200  1
  B  B50  1  0.75000000  0.27761600  0.54947300  1
  B  B51  1  0.25000000  0.72238400  0.59338400  1
  B  B52  1  0.75000000  0.94662700  0.55043700  1
  B  B53  1  0.25000000  0.05337300  0.59242000  1
  B  B54  1  0.75000000  0.44662700  0.52099200  1
  B  B55  1  0.25000000  0.55337300  0.62186600  1
  B  B56  1  0.94199500  0.36767100  0.63382600  1
  B  B57  1  0.44199500  0.63232900  0.50903100  1
  B  B58  1  0.55800500  0.86767100  0.58046000  1
  B  B59  1  0.05800500  0.13232900  0.56239700  1
  B  B60  1  0.05800500  0.63232900  0.50903100  1
  B  B61  1  0.55800500  0.36767100  0.63382600  1
  B  B62  1  0.44199500  0.13232900  0.56239700  1
  B  B63  1  0.94199500  0.86767100  0.58046000  1
  B  B64  1  0.75000000  0.77761600  0.66481300  1
  B  B65  1  0.25000000  0.22238400  0.76375900  1
  B  B66  1  0.75000000  0.27761600  0.69233000  1
  B  B67  1  0.25000000  0.72238400  0.73624100  1
  B  B68  1  0.75000000  0.94662700  0.69329400  1
  B  B69  1  0.25000000  0.05337300  0.73527700  1
  B  B70  1  0.75000000  0.44662700  0.66384900  1
  B  B71  1  0.25000000  0.55337300  0.76472300  1
  B  B72  1  0.94199500  0.36767100  0.77668300  1
  B  B73  1  0.44199500  0.63232900  0.65188900  1
  B  B74  1  0.55800500  0.86767100  0.72331700  1
  B  B75  1  0.05800500  0.13232900  0.70525400  1
  B  B76  1  0.05800500  0.63232900  0.65188900  1
  B  B77  1  0.55800500  0.36767100  0.77668300  1
  B  B78  1  0.44199500  0.13232900  0.70525400  1
  B  B79  1  0.94199500  0.86767100  0.72331700  1
