# generated using pymatgen
data_MgHg2
_symmetry_space_group_name_H-M   'P 1'
_cell_length_a   3.51707100
_cell_length_b   11.62911591
_cell_length_c   47.45470900
_cell_angle_alpha   87.71781654
_cell_angle_beta   90.00000000
_cell_angle_gamma   90.00000000
_symmetry_Int_Tables_number   1
_chemical_formula_structural   MgHg2
_chemical_formula_sum   'Mg16 Hg32'
_cell_volume   1939.37834396
_cell_formula_units_Z   16
loop_
 _symmetry_equiv_pos_site_id
 _symmetry_equiv_pos_as_xyz
  1  'x, y, z'
loop_
 _atom_site_type_symbol
 _atom_site_label
 _atom_site_symmetry_multiplicity
 _atom_site_fract_x
 _atom_site_fract_y
 _atom_site_fract_z
 _atom_site_occupancy
  Mg  Mg0  1  0.50000000  0.52527100  0.24966100  1
  Mg  Mg1  1  1.00000000  0.04615700  0.25033900  1
  Mg  Mg2  1  0.00000000  0.09670000  0.32108900  1
  Mg  Mg3  1  0.50000000  0.61758600  0.32176800  1
  Mg  Mg4  1  0.50000000  0.66812900  0.39251800  1
  Mg  Mg5  1  0.00000000  0.18901400  0.39319600  1
  Mg  Mg6  1  1.00000000  0.23955700  0.46394600  1
  Mg  Mg7  1  0.50000000  0.76044300  0.46462500  1
  Mg  Mg8  1  0.50000000  0.81098600  0.53537500  1
  Mg  Mg9  1  1.00000000  0.33187100  0.53605400  1
  Mg  Mg10  1  1.00000000  0.38241400  0.60680400  1
  Mg  Mg11  1  0.50000000  0.90330000  0.60748200  1
  Mg  Mg12  1  0.50000000  0.95384300  0.67823200  1
  Mg  Mg13  1  1.00000000  0.47472900  0.67891100  1
  Mg  Mg14  1  1.00000000  0.52527100  0.74966100  1
  Mg  Mg15  1  0.50000000  0.04615700  0.75033900  1
  Hg  Hg16  1  1.00000000  0.43157000  0.29692300  1
  Hg  Hg17  1  0.50000000  0.28271500  0.34593400  1
  Hg  Hg18  1  0.00000000  0.34808000  0.22308800  1
  Hg  Hg19  1  0.50000000  0.22334900  0.27691200  1
  Hg  Hg20  1  0.50000000  0.86014200  0.22549400  1
  Hg  Hg21  1  0.00000000  0.71128700  0.27450600  1
  Hg  Hg22  1  0.50000000  0.91950800  0.29451600  1
  Hg  Hg23  1  1.00000000  0.79477800  0.34834100  1
  Hg  Hg24  1  1.00000000  0.57442700  0.43978000  1
  Hg  Hg25  1  0.50000000  0.42557300  0.48879100  1
  Hg  Hg26  1  1.00000000  0.49093700  0.36594500  1
  Hg  Hg27  1  0.50000000  0.36620600  0.41976900  1
  Hg  Hg28  1  0.50000000  0.00299900  0.36835200  1
  Hg  Hg29  1  0.00000000  0.85414400  0.41736300  1
  Hg  Hg30  1  0.50000000  0.06236500  0.43737300  1
  Hg  Hg31  1  0.00000000  0.93763500  0.49119800  1
  Hg  Hg32  1  0.00000000  0.71728500  0.58263700  1
  Hg  Hg33  1  0.50000000  0.56843000  0.63164800  1
  Hg  Hg34  1  1.00000000  0.63379400  0.50880200  1
  Hg  Hg35  1  0.50000000  0.50906300  0.56262700  1
  Hg  Hg36  1  0.50000000  0.14585600  0.51120900  1
  Hg  Hg37  1  0.00000000  0.99700100  0.56022000  1
  Hg  Hg38  1  0.50000000  0.20522200  0.58023100  1
  Hg  Hg39  1  1.00000000  0.08049200  0.63405500  1
  Hg  Hg40  1  0.00000000  0.86014200  0.72549400  1
  Hg  Hg41  1  0.50000000  0.71128700  0.77450600  1
  Hg  Hg42  1  1.00000000  0.77665100  0.65165900  1
  Hg  Hg43  1  0.50000000  0.65192000  0.70548400  1
  Hg  Hg44  1  0.50000000  0.28871300  0.65406600  1
  Hg  Hg45  1  0.00000000  0.13985800  0.70307700  1
  Hg  Hg46  1  0.50000000  0.34808000  0.72308800  1
  Hg  Hg47  1  0.00000000  0.22334900  0.77691200  1
