# generated using pymatgen
data_CaMg3
_symmetry_space_group_name_H-M   'P 1'
_cell_length_a   6.85063100
_cell_length_b   6.85063170
_cell_length_c   42.38679800
_cell_angle_alpha   90.00000000
_cell_angle_beta   90.00000000
_cell_angle_gamma   120.00000144
_symmetry_Int_Tables_number   1
_chemical_formula_structural   CaMg3
_chemical_formula_sum   'Ca10 Mg30'
_cell_volume   1722.75068393
_cell_formula_units_Z   10
loop_
 _symmetry_equiv_pos_site_id
 _symmetry_equiv_pos_as_xyz
  1  'x, y, z'
loop_
 _atom_site_type_symbol
 _atom_site_label
 _atom_site_symmetry_multiplicity
 _atom_site_fract_x
 _atom_site_fract_y
 _atom_site_fract_z
 _atom_site_occupancy
  Ca  Ca0  1  0.66666700  0.33333300  0.28125000  1
  Ca  Ca1  1  0.33333300  0.66666700  0.21875000  1
  Ca  Ca2  1  0.66666700  0.33333300  0.40625000  1
  Ca  Ca3  1  0.33333300  0.66666700  0.34375000  1
  Ca  Ca4  1  0.66666700  0.33333300  0.53125000  1
  Ca  Ca5  1  0.33333300  0.66666700  0.46875000  1
  Ca  Ca6  1  0.66666700  0.33333300  0.65625000  1
  Ca  Ca7  1  0.33333300  0.66666700  0.59375000  1
  Ca  Ca8  1  0.66666700  0.33333300  0.78125000  1
  Ca  Ca9  1  0.33333300  0.66666700  0.71875000  1
  Mg  Mg10  1  0.16064000  0.32128100  0.28125000  1
  Mg  Mg11  1  0.67871900  0.83936000  0.28125000  1
  Mg  Mg12  1  0.16064000  0.83936000  0.28125000  1
  Mg  Mg13  1  0.83936000  0.16064000  0.21875000  1
  Mg  Mg14  1  0.83936000  0.67871900  0.21875000  1
  Mg  Mg15  1  0.32128100  0.16064000  0.21875000  1
  Mg  Mg16  1  0.16064000  0.32128100  0.40625000  1
  Mg  Mg17  1  0.67871900  0.83936000  0.40625000  1
  Mg  Mg18  1  0.16064000  0.83936000  0.40625000  1
  Mg  Mg19  1  0.83936000  0.16064000  0.34375000  1
  Mg  Mg20  1  0.83936000  0.67871900  0.34375000  1
  Mg  Mg21  1  0.32128100  0.16064000  0.34375000  1
  Mg  Mg22  1  0.16064000  0.32128100  0.53125000  1
  Mg  Mg23  1  0.67871900  0.83936000  0.53125000  1
  Mg  Mg24  1  0.16064000  0.83936000  0.53125000  1
  Mg  Mg25  1  0.83936000  0.16064000  0.46875000  1
  Mg  Mg26  1  0.83936000  0.67871900  0.46875000  1
  Mg  Mg27  1  0.32128100  0.16064000  0.46875000  1
  Mg  Mg28  1  0.16064000  0.32128100  0.65625000  1
  Mg  Mg29  1  0.67871900  0.83936000  0.65625000  1
  Mg  Mg30  1  0.16064000  0.83936000  0.65625000  1
  Mg  Mg31  1  0.83936000  0.16064000  0.59375000  1
  Mg  Mg32  1  0.83936000  0.67871900  0.59375000  1
  Mg  Mg33  1  0.32128100  0.16064000  0.59375000  1
  Mg  Mg34  1  0.16064000  0.32128100  0.78125000  1
  Mg  Mg35  1  0.67871900  0.83936000  0.78125000  1
  Mg  Mg36  1  0.16064000  0.83936000  0.78125000  1
  Mg  Mg37  1  0.83936000  0.16064000  0.71875000  1
  Mg  Mg38  1  0.83936000  0.67871900  0.71875000  1
  Mg  Mg39  1  0.32128100  0.16064000  0.71875000  1
