# generated using pymatgen
data_Mg11Ir15
_symmetry_space_group_name_H-M   'P 1'
_cell_length_a   5.24707521
_cell_length_b   9.72091511
_cell_length_c   42.67859400
_cell_angle_alpha   83.72935757
_cell_angle_beta   86.47569412
_cell_angle_gamma   74.34252486
_symmetry_Int_Tables_number   1
_chemical_formula_structural   Mg11Ir15
_chemical_formula_sum   'Mg22 Ir30'
_cell_volume   2082.39608329
_cell_formula_units_Z   2
loop_
 _symmetry_equiv_pos_site_id
 _symmetry_equiv_pos_as_xyz
  1  'x, y, z'
loop_
 _atom_site_type_symbol
 _atom_site_label
 _atom_site_symmetry_multiplicity
 _atom_site_fract_x
 _atom_site_fract_y
 _atom_site_fract_z
 _atom_site_occupancy
  Mg  Mg0  1  0.57770000  0.23617700  0.60842300  1
  Mg  Mg1  1  0.42230000  0.54782300  0.60757700  1
  Mg  Mg2  1  0.71986400  0.13533900  0.42493200  1
  Mg  Mg3  1  0.28013600  0.84866100  0.59106800  1
  Mg  Mg4  1  0.44543300  0.62447400  0.48466100  1
  Mg  Mg5  1  0.55456700  0.35952600  0.53133900  1
  Mg  Mg6  1  0.70924000  0.08461800  0.49690200  1
  Mg  Mg7  1  0.29076000  0.89938200  0.51909800  1
  Mg  Mg8  1  0.57770000  0.43617700  0.40842300  1
  Mg  Mg9  1  0.42230000  0.74782300  0.40757700  1
  Mg  Mg10  1  0.97896800  0.59777500  0.44428800  1
  Mg  Mg11  1  0.02103200  0.38622500  0.57171200  1
  Mg  Mg12  1  0.71986400  0.33533900  0.22493200  1
  Mg  Mg13  1  0.28013600  0.04866100  0.39106800  1
  Mg  Mg14  1  0.44543300  0.82447400  0.28466100  1
  Mg  Mg15  1  0.55456700  0.55952600  0.33133900  1
  Mg  Mg16  1  0.70924000  0.28461800  0.29690200  1
  Mg  Mg17  1  0.29076000  0.09938200  0.31909800  1
  Mg  Mg18  1  0.57770000  0.63617700  0.20842300  1
  Mg  Mg19  1  0.42230000  0.94782300  0.20757700  1
  Mg  Mg20  1  0.97896800  0.79777500  0.24428800  1
  Mg  Mg21  1  0.02103200  0.58622500  0.37171200  1
  Ir  Ir22  1  0.13112200  0.32409300  0.41366400  1
  Ir  Ir23  1  0.86887800  0.65990700  0.60233600  1
  Ir  Ir24  1  0.08254400  0.88198200  0.45390600  1
  Ir  Ir25  1  0.91745600  0.10201800  0.56209400  1
  Ir  Ir26  1  0.41843100  0.10201800  0.56209400  1
  Ir  Ir27  1  0.58156900  0.88198200  0.45390600  1
  Ir  Ir28  1  1.00000000  0.49200000  0.50800000  1
  Ir  Ir29  1  0.78403600  0.87532300  0.55660500  1
  Ir  Ir30  1  0.21596400  0.10867700  0.45939500  1
  Ir  Ir31  1  0.86417200  0.77028000  0.50137700  1
  Ir  Ir32  1  0.13582800  0.21372000  0.51462300  1
  Ir  Ir33  1  0.82470600  0.35128300  0.46718100  1
  Ir  Ir34  1  0.17529400  0.63271700  0.54881900  1
  Ir  Ir35  1  0.64317100  0.63271700  0.54881900  1
  Ir  Ir36  1  0.35682900  0.35128300  0.46718100  1
  Ir  Ir37  1  0.13112200  0.52409300  0.21366400  1
  Ir  Ir38  1  0.86887800  0.85990700  0.40233600  1
  Ir  Ir39  1  0.08254400  0.08198200  0.25390600  1
  Ir  Ir40  1  0.91745600  0.30201800  0.36209400  1
  Ir  Ir41  1  0.41843100  0.30201800  0.36209400  1
  Ir  Ir42  1  0.58156900  0.08198200  0.25390600  1
  Ir  Ir43  1  0.00000000  0.69200000  0.30800000  1
  Ir  Ir44  1  0.78403600  0.07532300  0.35660500  1
  Ir  Ir45  1  0.21596400  0.30867700  0.25939500  1
  Ir  Ir46  1  0.86417200  0.97028000  0.30137700  1
  Ir  Ir47  1  0.13582800  0.41372000  0.31462300  1
  Ir  Ir48  1  0.82470600  0.55128300  0.26718100  1
  Ir  Ir49  1  0.17529400  0.83271700  0.34881900  1
  Ir  Ir50  1  0.64317100  0.83271700  0.34881900  1
  Ir  Ir51  1  0.35682900  0.55128300  0.26718100  1
