# generated using pymatgen
data_Mg3Zn5
_symmetry_space_group_name_H-M   'P 1'
_cell_length_a   5.07402209
_cell_length_b   22.10207791
_cell_length_c   42.67993100
_cell_angle_alpha   98.00895109
_cell_angle_beta   93.24549340
_cell_angle_gamma   83.83945518
_symmetry_Int_Tables_number   1
_chemical_formula_structural   Mg3Zn5
_chemical_formula_sum   'Mg60 Zn100'
_cell_volume   4708.12433190
_cell_formula_units_Z   20
loop_
 _symmetry_equiv_pos_site_id
 _symmetry_equiv_pos_as_xyz
  1  'x, y, z'
loop_
 _atom_site_type_symbol
 _atom_site_label
 _atom_site_symmetry_multiplicity
 _atom_site_fract_x
 _atom_site_fract_y
 _atom_site_fract_z
 _atom_site_occupancy
  Mg  Mg0  1  0.44096600  0.73371400  0.37932600  1
  Mg  Mg1  1  0.30483100  0.97364300  0.35255900  1
  Mg  Mg2  1  0.07907200  0.40652600  0.31667200  1
  Mg  Mg3  1  0.91521600  0.75370300  0.34103300  1
  Mg  Mg4  1  0.81738100  0.00043900  0.39479600  1
  Mg  Mg5  1  0.52369300  0.58587300  0.38913000  1
  Mg  Mg6  1  0.08511600  0.31549200  0.25007500  1
  Mg  Mg7  1  0.85878800  0.79430600  0.27714900  1
  Mg  Mg8  1  0.62841000  0.22563900  0.24518100  1
  Mg  Mg9  1  0.95662400  0.54757000  0.22338600  1
  Mg  Mg10  1  0.69493200  0.14148300  0.30151000  1
  Mg  Mg11  1  0.14559400  0.32236900  0.37300000  1
  Mg  Mg12  1  0.36250100  0.83650100  0.32538700  1
  Mg  Mg13  1  0.53245400  0.49594000  0.32253700  1
  Mg  Mg14  1  0.24155000  0.05206800  0.29564400  1
  Mg  Mg15  1  0.68888800  0.23251700  0.36810700  1
  Mg  Mg16  1  0.33303800  0.81429400  0.23885600  1
  Mg  Mg17  1  0.25031100  0.96213600  0.22905200  1
  Mg  Mg18  1  0.46917300  0.57436600  0.26562300  1
  Mg  Mg19  1  0.41150300  0.71150800  0.29279500  1
  Mg  Mg20  1  0.24096600  0.33371400  0.57932600  1
  Mg  Mg21  1  0.10483100  0.57364300  0.55255900  1
  Mg  Mg22  1  0.87907200  0.00652600  0.51667200  1
  Mg  Mg23  1  0.71521600  0.35370300  0.54103300  1
  Mg  Mg24  1  0.61738100  0.60043900  0.59479600  1
  Mg  Mg25  1  0.32369300  0.18587300  0.58913000  1
  Mg  Mg26  1  0.88511600  0.91549200  0.45007500  1
  Mg  Mg27  1  0.65878800  0.39430600  0.47714900  1
  Mg  Mg28  1  0.42841000  0.82563900  0.44518100  1
  Mg  Mg29  1  0.75662400  0.14757000  0.42338600  1
  Mg  Mg30  1  0.49493200  0.74148300  0.50151000  1
  Mg  Mg31  1  0.94559400  0.92236900  0.57300000  1
  Mg  Mg32  1  0.16250100  0.43650100  0.52538700  1
  Mg  Mg33  1  0.33245400  0.09594000  0.52253700  1
  Mg  Mg34  1  0.04155000  0.65206800  0.49564400  1
  Mg  Mg35  1  0.48888800  0.83251700  0.56810700  1
  Mg  Mg36  1  0.13303800  0.41429400  0.43885600  1
  Mg  Mg37  1  0.05031100  0.56213600  0.42905200  1
  Mg  Mg38  1  0.26917300  0.17436600  0.46562300  1
  Mg  Mg39  1  0.21150300  0.31150800  0.49279500  1
  Mg  Mg40  1  0.04096600  0.93371400  0.77932600  1
  Mg  Mg41  1  0.90483100  0.17364300  0.75255900  1
  Mg  Mg42  1  0.67907200  0.60652600  0.71667200  1
  Mg  Mg43  1  0.51521600  0.95370300  0.74103300  1
  Mg  Mg44  1  0.41738100  0.20043900  0.79479600  1
  Mg  Mg45  1  0.12369300  0.78587300  0.78913000  1
  Mg  Mg46  1  0.68511600  0.51549200  0.65007500  1
  Mg  Mg47  1  0.45878800  0.99430600  0.67714900  1
  Mg  Mg48  1  0.22841000  0.42563900  0.64518100  1
  Mg  Mg49  1  0.55662400  0.74757000  0.62338600  1
  Mg  Mg50  1  0.29493200  0.34148300  0.70151000  1
  Mg  Mg51  1  0.74559400  0.52236900  0.77300000  1
  Mg  Mg52  1  0.96250100  0.03650100  0.72538700  1
  Mg  Mg53  1  0.13245400  0.69594000  0.72253700  1
  Mg  Mg54  1  0.84155000  0.25206800  0.69564400  1
  Mg  Mg55  1  0.28888800  0.43251700  0.76810700  1
  Mg  Mg56  1  0.93303800  0.01429400  0.63885600  1
  Mg  Mg57  1  0.85031100  0.16213600  0.62905200  1
  Mg  Mg58  1  0.06917300  0.77436600  0.66562300  1
  Mg  Mg59  1  0.01150300  0.91150800  0.69279500  1
  Zn  Zn60  1  0.83902300  0.89787500  0.33846200  1
  Zn  Zn61  1  0.16900900  0.18172800  0.27380300  1
  Zn  Zn62  1  0.64263700  0.68291000  0.23048200  1
  Zn  Zn63  1  0.99394200  0.09937200  0.35802500  1
  Zn  Zn64  1  0.62633500  0.86746700  0.38712500  1
  Zn  Zn65  1  0.88700200  0.27400400  0.30909100  1
  Zn  Zn66  1  0.74789900  0.00624700  0.26151600  1
  Zn  Zn67  1  0.27374200  0.44855400  0.26025500  1
  Zn  Zn68  1  0.93922700  0.09166800  0.23802100  1
  Zn  Zn69  1  0.98112300  0.65961100  0.38468900  1
  Zn  Zn70  1  0.58181500  0.35934200  0.28322300  1
  Zn  Zn71  1  0.00339000  0.53695800  0.29380300  1
  Zn  Zn72  1  0.93498200  0.65013400  0.27972000  1
  Zn  Zn73  1  0.02610500  0.54176100  0.35666600  1
  Zn  Zn74  1  0.22959700  0.62952900  0.33150000  1
  Zn  Zn75  1  0.50026200  0.09945500  0.35792700  1
  Zn  Zn76  1  0.14766900  0.68054100  0.23105700  1
  Zn  Zn77  1  0.19218900  0.18866700  0.33495900  1
  Zn  Zn78  1  0.54440700  0.91848000  0.28668200  1
  Zn  Zn79  1  0.78006200  0.44863700  0.26015700  1
  Zn  Zn80  1  0.38700200  0.27400400  0.30909100  1
  Zn  Zn81  1  0.44384600  0.09075000  0.23821700  1
  Zn  Zn82  1  0.71504200  0.63167600  0.33133600  1
  Zn  Zn83  1  0.05896300  0.91633200  0.28684600  1
  Zn  Zn84  1  0.77061400  0.01105000  0.32437900  1
  Zn  Zn85  1  0.33015800  0.45725800  0.37996500  1
  Zn  Zn86  1  0.13136700  0.86509800  0.38769900  1
  Zn  Zn87  1  0.83477800  0.45634100  0.38016100  1
  Zn  Zn88  1  0.79288200  0.88839700  0.23349300  1
  Zn  Zn89  1  0.60499600  0.36628000  0.34437900  1
  Zn  Zn90  1  0.34659700  0.95831200  0.42079200  1
  Zn  Zn91  1  0.63902300  0.49787500  0.53846200  1
  Zn  Zn92  1  0.96900900  0.78172800  0.47380300  1
  Zn  Zn93  1  0.44263700  0.28291000  0.43048200  1
  Zn  Zn94  1  0.79394200  0.69937200  0.55802500  1
  Zn  Zn95  1  0.42633500  0.46746700  0.58712500  1
  Zn  Zn96  1  0.68700200  0.87400400  0.50909100  1
  Zn  Zn97  1  0.22740700  0.18969600  0.39739000  1
  Zn  Zn98  1  0.54789900  0.60624700  0.46151600  1
  Zn  Zn99  1  0.07374200  0.04855400  0.46025500  1
  Zn  Zn100  1  0.73922700  0.69166800  0.43802100  1
  Zn  Zn101  1  0.78112300  0.25961100  0.58468900  1
  Zn  Zn102  1  0.38181500  0.95934200  0.48322300  1
  Zn  Zn103  1  0.80339000  0.13695800  0.49380300  1
  Zn  Zn104  1  0.73498200  0.25013400  0.47972000  1
  Zn  Zn105  1  0.82610500  0.14176100  0.55666600  1
  Zn  Zn106  1  0.02959700  0.22952900  0.53150000  1
  Zn  Zn107  1  0.30026200  0.69945500  0.55792700  1
  Zn  Zn108  1  0.94766900  0.28054100  0.43105700  1
  Zn  Zn109  1  0.99218900  0.78866700  0.53495900  1
  Zn  Zn110  1  0.34440700  0.51848000  0.48668200  1
  Zn  Zn111  1  0.58006200  0.04863700  0.46015700  1
  Zn  Zn112  1  0.18700200  0.87400400  0.50909100  1
  Zn  Zn113  1  0.92922200  0.78213200  0.41275800  1
  Zn  Zn114  1  0.24384600  0.69075000  0.43821700  1
  Zn  Zn115  1  0.51504200  0.23167600  0.53133600  1
  Zn  Zn116  1  0.64478300  0.36587700  0.40542300  1
  Zn  Zn117  1  0.85896300  0.51633200  0.48684600  1
  Zn  Zn118  1  0.57061400  0.61105000  0.52437900  1
  Zn  Zn119  1  0.13015800  0.05725800  0.57996500  1
  Zn  Zn120  1  0.93136700  0.46509800  0.58769900  1
  Zn  Zn121  1  0.28700200  0.07400400  0.40909100  1
  Zn  Zn122  1  0.63477800  0.05634100  0.58016100  1
  Zn  Zn123  1  0.59288200  0.48839700  0.43349300  1
  Zn  Zn124  1  0.40499600  0.96628000  0.54437900  1
  Zn  Zn125  1  0.14659700  0.55831200  0.62079200  1
  Zn  Zn126  1  0.43902300  0.09787500  0.73846200  1
  Zn  Zn127  1  0.76900900  0.38172800  0.67380300  1
  Zn  Zn128  1  0.24263700  0.88291000  0.63048200  1
  Zn  Zn129  1  0.59394200  0.29937200  0.75802500  1
  Zn  Zn130  1  0.22633500  0.06746700  0.78712500  1
  Zn  Zn131  1  0.48700200  0.47400400  0.70909100  1
  Zn  Zn132  1  0.02740700  0.78969600  0.59739000  1
  Zn  Zn133  1  0.34789900  0.20624700  0.66151600  1
  Zn  Zn134  1  0.87374200  0.64855400  0.66025500  1
  Zn  Zn135  1  0.53922700  0.29166800  0.63802100  1
  Zn  Zn136  1  0.58112300  0.85961100  0.78468900  1
  Zn  Zn137  1  0.18181500  0.55934200  0.68322300  1
  Zn  Zn138  1  0.60339000  0.73695800  0.69380300  1
  Zn  Zn139  1  0.53498200  0.85013400  0.67972000  1
  Zn  Zn140  1  0.62610500  0.74176100  0.75666600  1
  Zn  Zn141  1  0.82959700  0.82952900  0.73150000  1
  Zn  Zn142  1  0.10026200  0.29945500  0.75792700  1
  Zn  Zn143  1  0.74766900  0.88054100  0.63105700  1
  Zn  Zn144  1  0.79218900  0.38866700  0.73495900  1
  Zn  Zn145  1  0.14440700  0.11848000  0.68668200  1
  Zn  Zn146  1  0.38006200  0.64863700  0.66015700  1
  Zn  Zn147  1  0.98700200  0.47400400  0.70909100  1
  Zn  Zn148  1  0.72922200  0.38213200  0.61275800  1
  Zn  Zn149  1  0.04384600  0.29075000  0.63821700  1
  Zn  Zn150  1  0.31504200  0.83167600  0.73133600  1
  Zn  Zn151  1  0.44478300  0.96587700  0.60542300  1
  Zn  Zn152  1  0.65896300  0.11633200  0.68684600  1
  Zn  Zn153  1  0.37061400  0.21105000  0.72437900  1
  Zn  Zn154  1  0.93015800  0.65725800  0.77996500  1
  Zn  Zn155  1  0.73136700  0.06509800  0.78769900  1
  Zn  Zn156  1  0.08700200  0.67400400  0.60909100  1
  Zn  Zn157  1  0.43477800  0.65634100  0.78016100  1
  Zn  Zn158  1  0.39288200  0.08839700  0.63349300  1
  Zn  Zn159  1  0.20499600  0.56628000  0.74437900  1
