# generated using pymatgen
data_Mg11Ga10
_symmetry_space_group_name_H-M   'P 1'
_cell_length_a   5.53544100
_cell_length_b   10.67256900
_cell_length_c   53.36284700
_cell_angle_alpha   90.00000000
_cell_angle_beta   90.00000000
_cell_angle_gamma   90.00000000
_symmetry_Int_Tables_number   1
_chemical_formula_structural   Mg11Ga10
_chemical_formula_sum   'Mg44 Ga40'
_cell_volume   3152.53697761
_cell_formula_units_Z   4
loop_
 _symmetry_equiv_pos_site_id
 _symmetry_equiv_pos_as_xyz
  1  'x, y, z'
loop_
 _atom_site_type_symbol
 _atom_site_label
 _atom_site_symmetry_multiplicity
 _atom_site_fract_x
 _atom_site_fract_y
 _atom_site_fract_z
 _atom_site_occupancy
  Mg  Mg0  1  0.76786000  0.63212400  0.30204300  1
  Mg  Mg1  1  0.76786000  0.36787600  0.27295700  1
  Mg  Mg2  1  0.23214000  0.42728500  0.31392500  1
  Mg  Mg3  1  0.01786000  0.57271500  0.36107500  1
  Mg  Mg4  1  0.98214000  0.13212400  0.30204300  1
  Mg  Mg5  1  0.98214000  0.86787600  0.27295700  1
  Mg  Mg6  1  0.73214000  0.07271500  0.36107500  1
  Mg  Mg7  1  0.26786000  0.13212400  0.40204300  1
  Mg  Mg8  1  0.26786000  0.86787600  0.37295700  1
  Mg  Mg9  1  0.48214000  0.63212400  0.40204300  1
  Mg  Mg10  1  0.48214000  0.36787600  0.37295700  1
  Mg  Mg11  1  0.51786000  0.92728500  0.31392500  1
  Mg  Mg12  1  0.23214000  0.57271500  0.46107500  1
  Mg  Mg13  1  0.76786000  0.63212400  0.50204300  1
  Mg  Mg14  1  0.76786000  0.36787600  0.47295700  1
  Mg  Mg15  1  0.23214000  0.42728500  0.51392500  1
  Mg  Mg16  1  0.01786000  0.57271500  0.56107500  1
  Mg  Mg17  1  0.98214000  0.13212400  0.50204300  1
  Mg  Mg18  1  0.98214000  0.86787600  0.47295700  1
  Mg  Mg19  1  0.01786000  0.42728500  0.41392500  1
  Mg  Mg20  1  0.73214000  0.07271500  0.56107500  1
  Mg  Mg21  1  0.26786000  0.13212400  0.60204300  1
  Mg  Mg22  1  0.26786000  0.86787600  0.57295700  1
  Mg  Mg23  1  0.73214000  0.92728500  0.41392500  1
  Mg  Mg24  1  0.51786000  0.07271500  0.46107500  1
  Mg  Mg25  1  0.48214000  0.63212400  0.60204300  1
  Mg  Mg26  1  0.48214000  0.36787600  0.57295700  1
  Mg  Mg27  1  0.51786000  0.92728500  0.51392500  1
  Mg  Mg28  1  0.23214000  0.57271500  0.66107500  1
  Mg  Mg29  1  0.76786000  0.63212400  0.70204300  1
  Mg  Mg30  1  0.76786000  0.36787600  0.67295700  1
  Mg  Mg31  1  0.23214000  0.42728500  0.71392500  1
  Mg  Mg32  1  0.01786000  0.57271500  0.76107500  1
  Mg  Mg33  1  0.98214000  0.13212400  0.70204300  1
  Mg  Mg34  1  0.98214000  0.86787600  0.67295700  1
  Mg  Mg35  1  0.01786000  0.42728500  0.61392500  1
  Mg  Mg36  1  0.73214000  0.07271500  0.76107500  1
  Mg  Mg37  1  0.26786000  0.13212400  0.80204300  1
  Mg  Mg38  1  0.26786000  0.86787600  0.77295700  1
  Mg  Mg39  1  0.73214000  0.92728500  0.61392500  1
  Mg  Mg40  1  0.51786000  0.07271500  0.66107500  1
  Mg  Mg41  1  0.48214000  0.63212400  0.80204300  1
  Mg  Mg42  1  0.48214000  0.36787600  0.77295700  1
  Mg  Mg43  1  0.51786000  0.92728500  0.71392500  1
  Ga  Ga44  1  0.25580500  0.69874100  0.30890100  1
  Ga  Ga45  1  0.50580500  0.60700400  0.34775200  1
  Ga  Ga46  1  0.74419500  0.39299600  0.32724800  1
  Ga  Ga47  1  0.49419500  0.19874100  0.30890100  1
  Ga  Ga48  1  0.00580500  0.89299600  0.32724800  1
  Ga  Ga49  1  0.75580500  0.80125900  0.36609900  1
  Ga  Ga50  1  0.99419500  0.30125900  0.36609900  1
  Ga  Ga51  1  0.24419500  0.10700400  0.34775200  1
  Ga  Ga52  1  0.50580500  0.39299600  0.42724800  1
  Ga  Ga53  1  0.25580500  0.69874100  0.50890100  1
  Ga  Ga54  1  0.25580500  0.30125900  0.46609900  1
  Ga  Ga55  1  0.50580500  0.60700400  0.54775200  1
  Ga  Ga56  1  0.74419500  0.39299600  0.52724800  1
  Ga  Ga57  1  0.49419500  0.19874100  0.50890100  1
  Ga  Ga58  1  0.49419500  0.80125900  0.46609900  1
  Ga  Ga59  1  0.74419500  0.60700400  0.44775200  1
  Ga  Ga60  1  0.00580500  0.89299600  0.52724800  1
  Ga  Ga61  1  0.75580500  0.19874100  0.40890100  1
  Ga  Ga62  1  0.75580500  0.80125900  0.56609900  1
  Ga  Ga63  1  0.00580500  0.10700400  0.44775200  1
  Ga  Ga64  1  0.24419500  0.89299600  0.42724800  1
  Ga  Ga65  1  0.99419500  0.69874100  0.40890100  1
  Ga  Ga66  1  0.99419500  0.30125900  0.56609900  1
  Ga  Ga67  1  0.24419500  0.10700400  0.54775200  1
  Ga  Ga68  1  0.50580500  0.39299600  0.62724800  1
  Ga  Ga69  1  0.25580500  0.69874100  0.70890100  1
  Ga  Ga70  1  0.25580500  0.30125900  0.66609900  1
  Ga  Ga71  1  0.50580500  0.60700400  0.74775200  1
  Ga  Ga72  1  0.74419500  0.39299600  0.72724800  1
  Ga  Ga73  1  0.49419500  0.19874100  0.70890100  1
  Ga  Ga74  1  0.49419500  0.80125900  0.66609900  1
  Ga  Ga75  1  0.74419500  0.60700400  0.64775200  1
  Ga  Ga76  1  0.00580500  0.89299600  0.72724800  1
  Ga  Ga77  1  0.75580500  0.19874100  0.60890100  1
  Ga  Ga78  1  0.75580500  0.80125900  0.76609900  1
  Ga  Ga79  1  0.00580500  0.10700400  0.64775200  1
  Ga  Ga80  1  0.24419500  0.89299600  0.62724800  1
  Ga  Ga81  1  0.99419500  0.69874100  0.60890100  1
  Ga  Ga82  1  0.99419500  0.30125900  0.76609900  1
  Ga  Ga83  1  0.24419500  0.10700400  0.74775200  1
