# generated using pymatgen
data_MgAg2
_symmetry_space_group_name_H-M   'P 1'
_cell_length_a   5.07886500
_cell_length_b   5.11669498
_cell_length_c   48.77802500
_cell_angle_alpha   90.00000000
_cell_angle_beta   90.00000000
_cell_angle_gamma   119.75572041
_symmetry_Int_Tables_number   1
_chemical_formula_structural   MgAg2
_chemical_formula_sum   'Mg12 Ag24'
_cell_volume   1100.46139704
_cell_formula_units_Z   12
loop_
 _symmetry_equiv_pos_site_id
 _symmetry_equiv_pos_as_xyz
  1  'x, y, z'
loop_
 _atom_site_type_symbol
 _atom_site_label
 _atom_site_symmetry_multiplicity
 _atom_site_fract_x
 _atom_site_fract_y
 _atom_site_fract_z
 _atom_site_occupancy
  Mg  Mg0  1  0.80329900  0.00000000  0.27500000  1
  Mg  Mg1  1  0.19670100  1.00000000  0.22500000  1
  Mg  Mg2  1  0.80329900  0.00000000  0.37500000  1
  Mg  Mg3  1  0.19670100  1.00000000  0.32500000  1
  Mg  Mg4  1  0.80329900  0.00000000  0.47500000  1
  Mg  Mg5  1  0.19670100  1.00000000  0.42500000  1
  Mg  Mg6  1  0.80329900  0.00000000  0.57500000  1
  Mg  Mg7  1  0.19670100  1.00000000  0.52500000  1
  Mg  Mg8  1  0.80329900  0.00000000  0.67500000  1
  Mg  Mg9  1  0.19670100  1.00000000  0.62500000  1
  Mg  Mg10  1  0.80329900  0.00000000  0.77500000  1
  Mg  Mg11  1  0.19670100  1.00000000  0.72500000  1
  Ag  Ag12  1  0.51880000  0.66707100  0.22500000  1
  Ag  Ag13  1  0.14827100  0.66707100  0.27500000  1
  Ag  Ag14  1  0.48120000  0.33292900  0.27500000  1
  Ag  Ag15  1  0.85172900  0.33292900  0.22500000  1
  Ag  Ag16  1  0.51880000  0.66707100  0.32500000  1
  Ag  Ag17  1  0.14827100  0.66707100  0.37500000  1
  Ag  Ag18  1  0.48120000  0.33292900  0.37500000  1
  Ag  Ag19  1  0.85172900  0.33292900  0.32500000  1
  Ag  Ag20  1  0.51880000  0.66707100  0.42500000  1
  Ag  Ag21  1  0.14827100  0.66707100  0.47500000  1
  Ag  Ag22  1  0.48120000  0.33292900  0.47500000  1
  Ag  Ag23  1  0.85172900  0.33292900  0.42500000  1
  Ag  Ag24  1  0.51880000  0.66707100  0.52500000  1
  Ag  Ag25  1  0.14827100  0.66707100  0.57500000  1
  Ag  Ag26  1  0.48120000  0.33292900  0.57500000  1
  Ag  Ag27  1  0.85172900  0.33292900  0.52500000  1
  Ag  Ag28  1  0.51880000  0.66707100  0.62500000  1
  Ag  Ag29  1  0.14827100  0.66707100  0.67500000  1
  Ag  Ag30  1  0.48120000  0.33292900  0.67500000  1
  Ag  Ag31  1  0.85172900  0.33292900  0.62500000  1
  Ag  Ag32  1  0.51880000  0.66707100  0.72500000  1
  Ag  Ag33  1  0.14827100  0.66707100  0.77500000  1
  Ag  Ag34  1  0.48120000  0.33292900  0.77500000  1
  Ag  Ag35  1  0.85172900  0.33292900  0.72500000  1
