# generated using pymatgen
data_Mg7Sc4
_symmetry_space_group_name_H-M   'P 1'
_cell_length_a   5.20787600
_cell_length_b   8.45453137
_cell_length_c   41.48543700
_cell_angle_alpha   90.44880010
_cell_angle_beta   90.00000000
_cell_angle_gamma   90.00000000
_symmetry_Int_Tables_number   1
_chemical_formula_structural   Mg7Sc4
_chemical_formula_sum   'Mg28 Sc16'
_cell_volume   1826.55401880
_cell_formula_units_Z   4
loop_
 _symmetry_equiv_pos_site_id
 _symmetry_equiv_pos_as_xyz
  1  'x, y, z'
loop_
 _atom_site_type_symbol
 _atom_site_label
 _atom_site_symmetry_multiplicity
 _atom_site_fract_x
 _atom_site_fract_y
 _atom_site_fract_z
 _atom_site_occupancy
  Mg  Mg0  1  0.25000000  0.96767100  0.74796000  1
  Mg  Mg1  1  0.25000000  0.32663800  0.77360100  1
  Mg  Mg2  1  0.75000000  0.54514900  0.76486100  1
  Mg  Mg3  1  0.75000000  0.18618200  0.73921900  1
  Mg  Mg4  1  0.25000000  0.89074800  0.67103700  1
  Mg  Mg5  1  0.25000000  0.24971500  0.69667800  1
  Mg  Mg6  1  0.75000000  0.46822600  0.68793800  1
  Mg  Mg7  1  0.75000000  0.10925900  0.66229600  1
  Mg  Mg8  1  0.25000000  0.81382500  0.59411400  1
  Mg  Mg9  1  0.25000000  0.17279200  0.61975500  1
  Mg  Mg10  1  0.75000000  0.39130300  0.61101500  1
  Mg  Mg11  1  0.75000000  0.03233600  0.58537300  1
  Mg  Mg12  1  0.25000000  0.73690200  0.51719100  1
  Mg  Mg13  1  0.25000000  0.09586900  0.54283200  1
  Mg  Mg14  1  0.75000000  0.31438000  0.53409100  1
  Mg  Mg15  1  0.75000000  0.95541300  0.50845000  1
  Mg  Mg16  1  0.25000000  0.65997900  0.44026800  1
  Mg  Mg17  1  0.25000000  0.01894600  0.46590900  1
  Mg  Mg18  1  0.75000000  0.23745700  0.45716800  1
  Mg  Mg19  1  0.75000000  0.87849000  0.43152700  1
  Mg  Mg20  1  0.25000000  0.58305600  0.36334400  1
  Mg  Mg21  1  0.25000000  0.94202300  0.38898600  1
  Mg  Mg22  1  0.75000000  0.16053400  0.38024500  1
  Mg  Mg23  1  0.75000000  0.80156700  0.35460400  1
  Mg  Mg24  1  0.25000000  0.50613300  0.28642100  1
  Mg  Mg25  1  0.25000000  0.86510000  0.31206300  1
  Mg  Mg26  1  0.75000000  0.08361100  0.30332200  1
  Mg  Mg27  1  0.75000000  0.72464400  0.27768100  1
  Sc  Sc28  1  0.25000000  0.68587500  0.79923200  1
  Sc  Sc29  1  0.75000000  0.90386900  0.79051200  1
  Sc  Sc30  1  0.25000000  0.60895200  0.72230900  1
  Sc  Sc31  1  0.75000000  0.82694600  0.71358900  1
  Sc  Sc32  1  0.25000000  0.53202900  0.64538600  1
  Sc  Sc33  1  0.75000000  0.75002200  0.63666600  1
  Sc  Sc34  1  0.25000000  0.45510600  0.56846200  1
  Sc  Sc35  1  0.75000000  0.67309900  0.55974300  1
  Sc  Sc36  1  0.25000000  0.37818300  0.49153900  1
  Sc  Sc37  1  0.75000000  0.59617600  0.48282000  1
  Sc  Sc38  1  0.25000000  0.30126000  0.41461600  1
  Sc  Sc39  1  0.75000000  0.51925300  0.40589700  1
  Sc  Sc40  1  0.25000000  0.22433600  0.33769300  1
  Sc  Sc41  1  0.75000000  0.44233000  0.32897300  1
  Sc  Sc42  1  0.25000000  0.14741300  0.26077000  1
  Sc  Sc43  1  0.75000000  0.36540700  0.25205000  1
