# generated using pymatgen
data_Mg34Zn57
_symmetry_space_group_name_H-M   'P 1'
_cell_length_a   5.07402260
_cell_length_b   13.26606241
_cell_length_c   57.00757700
_cell_angle_alpha   92.18610401
_cell_angle_beta   87.66012493
_cell_angle_gamma   100.62858194
_symmetry_Int_Tables_number   1
_chemical_formula_structural   Mg34Zn57
_chemical_formula_sum   'Mg34 Zn57'
_cell_volume   3766.49990850
_cell_formula_units_Z   1
loop_
 _symmetry_equiv_pos_site_id
 _symmetry_equiv_pos_as_xyz
  1  'x, y, z'
loop_
 _atom_site_type_symbol
 _atom_site_label
 _atom_site_symmetry_multiplicity
 _atom_site_fract_x
 _atom_site_fract_y
 _atom_site_fract_z
 _atom_site_occupancy
  Mg  Mg0  1  0.23346700  0.60667100  0.39313700  1
  Mg  Mg1  1  0.44296700  0.97349800  0.34653800  1
  Mg  Mg2  1  0.78336000  0.72738900  0.40728600  1
  Mg  Mg3  1  0.10887700  0.39735900  0.42519500  1
  Mg  Mg4  1  0.88188100  0.93785200  0.42907700  1
  Mg  Mg5  1  0.23607600  0.55693800  0.33722800  1
  Mg  Mg6  1  0.42916500  0.10830300  0.49913600  1
  Mg  Mg7  1  0.36459800  0.87000100  0.39441000  1
  Mg  Mg8  1  0.11092900  0.45142400  0.48097500  1
  Mg  Mg9  1  0.55431200  0.21381600  0.35538900  1
  Mg  Mg10  1  0.43177400  0.05857000  0.44322700  1
  Mg  Mg11  1  0.55636400  0.26788200  0.41116800  1
  Mg  Mg12  1  0.22227400  0.69174200  0.48982600  1
  Mg  Mg13  1  0.30064300  0.79523900  0.44195400  1
  Mg  Mg14  1  0.98346700  0.35667100  0.64313700  1
  Mg  Mg15  1  0.19296700  0.72349800  0.59653800  1
  Mg  Mg16  1  0.54489100  0.35432000  0.50626100  1
  Mg  Mg17  1  0.53336000  0.47738900  0.65728600  1
  Mg  Mg18  1  0.66599800  0.65140100  0.56872100  1
  Mg  Mg19  1  0.85887700  0.14735900  0.67519500  1
  Mg  Mg20  1  0.54938600  0.40702000  0.56231800  1
  Mg  Mg21  1  0.63188100  0.68785200  0.67907700  1
  Mg  Mg22  1  0.98607600  0.30693800  0.58722800  1
  Mg  Mg23  1  0.74924300  0.76384000  0.51764300  1
  Mg  Mg24  1  0.87035000  0.06092000  0.58010300  1
  Mg  Mg25  1  0.17916500  0.85830300  0.74913600  1
  Mg  Mg26  1  0.11459800  0.62000100  0.64441000  1
  Mg  Mg27  1  0.86092900  0.20142400  0.73097500  1
  Mg  Mg28  1  0.30431200  0.96381600  0.60538900  1
  Mg  Mg29  1  0.86585500  0.00822100  0.52404600  1
  Mg  Mg30  1  0.18177400  0.80857000  0.69322700  1
  Mg  Mg31  1  0.30636400  0.01788200  0.66116800  1
  Mg  Mg32  1  0.97227400  0.44174200  0.73982600  1
  Mg  Mg33  1  0.05064300  0.54523900  0.69195400  1
  Zn  Zn34  1  0.89688200  0.91403100  0.37252900  1
  Zn  Zn35  1  0.09351600  0.91527400  0.48025900  1
  Zn  Zn36  1  0.07763600  0.75436400  0.35579900  1
  Zn  Zn37  1  0.05357100  0.24186100  0.38390800  1
  Zn  Zn38  1  0.89534700  0.40737500  0.37430100  1
  Zn  Zn39  1  0.67210300  0.50063400  0.40898100  1
  Zn  Zn40  1  0.66461500  0.57453300  0.48508800  1
  Zn  Zn41  1  0.76835900  0.75121000  0.46383500  1
  Zn  Zn42  1  0.61166900  0.42338000  0.45245500  1
  Zn  Zn43  1  0.44270200  0.59600300  0.44309600  1
  Zn  Zn44  1  0.58760500  0.91087700  0.48056500  1
  Zn  Zn45  1  0.22253900  0.06923800  0.39326800  1
  Zn  Zn46  1  0.74059900  0.58361100  0.36431600  1
  Zn  Zn47  1  0.39040000  0.40573800  0.37443200  1
  Zn  Zn48  1  0.95787600  0.59909900  0.44264100  1
  Zn  Zn49  1  0.92464200  0.08163000  0.47204700  1
  Zn  Zn50  1  0.70736400  0.06614200  0.39372200  1
  Zn  Zn51  1  0.00062500  0.09070700  0.35127600  1
  Zn  Zn52  1  0.27484100  0.25950300  0.46193100  1
  Zn  Zn53  1  0.57172500  0.74996600  0.35610400  1
  Zn  Zn54  1  0.76989400  0.25786600  0.46206300  1
  Zn  Zn55  1  0.99313800  0.16460700  0.42738300  1
  Zn  Zn56  1  0.11325200  0.53375300  0.56625400  1
  Zn  Zn57  1  0.64688200  0.66403100  0.62252900  1
  Zn  Zn58  1  0.42018900  0.18049600  0.58389500  1
  Zn  Zn59  1  0.84351600  0.66527400  0.73025900  1
  Zn  Zn60  1  0.53255500  0.86699500  0.56237300  1
  Zn  Zn61  1  0.82763600  0.50436400  0.60579900  1
  Zn  Zn62  1  0.70762000  0.20762000  0.54318200  1
  Zn  Zn63  1  0.30198900  0.88148800  0.52010900  1
  Zn  Zn64  1  0.80357100  0.99186100  0.63390800  1
  Zn  Zn65  1  0.38893600  0.54789800  0.52396300  1
  Zn  Zn66  1  0.64534700  0.15737500  0.62430100  1
  Zn  Zn67  1  0.42210300  0.25063400  0.65898100  1
  Zn  Zn68  1  0.04707600  0.37896200  0.53478200  1
  Zn  Zn69  1  0.41461500  0.32453300  0.73508800  1
  Zn  Zn70  1  0.51835900  0.50121000  0.71383500  1
  Zn  Zn71  1  0.36166900  0.17338000  0.70245500  1
  Zn  Zn72  1  0.19270200  0.34600300  0.69309600  1
  Zn  Zn73  1  0.02630500  0.86734300  0.56240100  1
  Zn  Zn74  1  0.33760500  0.66087700  0.73056500  1
  Zn  Zn75  1  0.36816500  0.03627900  0.55158200  1
  Zn  Zn76  1  0.97253900  0.81923800  0.64326800  1
  Zn  Zn77  1  0.88268600  0.54824600  0.52399100  1
  Zn  Zn78  1  0.20762000  0.20762000  0.54318200  1
  Zn  Zn79  1  0.49059900  0.33361100  0.61431600  1
  Zn  Zn80  1  0.14040000  0.15573800  0.62443200  1
  Zn  Zn81  1  0.70787600  0.34909900  0.69264100  1
  Zn  Zn82  1  0.67464200  0.83163000  0.72204700  1
  Zn  Zn83  1  0.45736400  0.81614200  0.64372200  1
  Zn  Zn84  1  0.75062500  0.84070700  0.60127600  1
  Zn  Zn85  1  0.02484100  0.00950300  0.71193100  1
  Zn  Zn86  1  0.32172500  0.49996600  0.60610400  1
  Zn  Zn87  1  0.20762000  0.70762000  0.54318200  1
  Zn  Zn88  1  0.51989400  0.00786600  0.71206300  1
  Zn  Zn89  1  0.74313800  0.91460700  0.67738300  1
  Zn  Zn90  1  0.99505200  0.23474500  0.50246900  1
