# generated using pymatgen
data_Mg32Hg19
_symmetry_space_group_name_H-M   'P 1'
_cell_length_a   5.97810100
_cell_length_b   14.38026390
_cell_length_c   46.22608200
_cell_angle_alpha   81.05172384
_cell_angle_beta   90.00000000
_cell_angle_gamma   90.00000000
_symmetry_Int_Tables_number   1
_chemical_formula_structural   Mg32Hg19
_chemical_formula_sum   'Mg64 Hg38'
_cell_volume   3925.53660475
_cell_formula_units_Z   2
loop_
 _symmetry_equiv_pos_site_id
 _symmetry_equiv_pos_as_xyz
  1  'x, y, z'
loop_
 _atom_site_type_symbol
 _atom_site_label
 _atom_site_symmetry_multiplicity
 _atom_site_fract_x
 _atom_site_fract_y
 _atom_site_fract_z
 _atom_site_occupancy
  Mg  Mg0  1  0.50000000  0.24903600  0.25568200  1
  Mg  Mg1  1  1.00000000  0.91570300  0.25568200  1
  Mg  Mg2  1  0.50000000  0.91570300  0.25568200  1
  Mg  Mg3  1  0.00000000  0.24903600  0.25568200  1
  Mg  Mg4  1  0.75000000  0.92421900  0.32405200  1
  Mg  Mg5  1  0.25000000  0.44713400  0.27822100  1
  Mg  Mg6  1  0.25000000  0.05945400  0.30151300  1
  Mg  Mg7  1  0.75000000  0.55983000  0.30076000  1
  Mg  Mg8  1  0.75000000  0.17215000  0.32405200  1
  Mg  Mg9  1  0.25000000  0.69506600  0.27822100  1
  Mg  Mg10  1  0.50000000  0.70358200  0.34659100  1
  Mg  Mg11  1  1.00000000  0.37024800  0.34659100  1
  Mg  Mg12  1  0.50000000  0.37024800  0.34659100  1
  Mg  Mg13  1  1.00000000  0.70358200  0.34659100  1
  Mg  Mg14  1  0.75000000  0.37876500  0.41496100  1
  Mg  Mg15  1  0.25000000  0.90168000  0.36913000  1
  Mg  Mg16  1  0.25000000  0.51400000  0.39242200  1
  Mg  Mg17  1  0.75000000  0.01437600  0.39166900  1
  Mg  Mg18  1  0.75000000  0.62669600  0.41496100  1
  Mg  Mg19  1  0.25000000  0.14961100  0.36913000  1
  Mg  Mg20  1  0.50000000  0.15812700  0.43750000  1
  Mg  Mg21  1  0.00000000  0.82479400  0.43750000  1
  Mg  Mg22  1  0.50000000  0.82479400  0.43750000  1
  Mg  Mg23  1  1.00000000  0.15812700  0.43750000  1
  Mg  Mg24  1  0.75000000  0.83331000  0.50587000  1
  Mg  Mg25  1  0.25000000  0.35622500  0.46003900  1
  Mg  Mg26  1  0.25000000  0.96854500  0.48333100  1
  Mg  Mg27  1  0.75000000  0.46892100  0.48257800  1
  Mg  Mg28  1  0.75000000  0.08124100  0.50587000  1
  Mg  Mg29  1  0.25000000  0.60415600  0.46003900  1
  Mg  Mg30  1  0.50000000  0.61267300  0.52840900  1
  Mg  Mg31  1  1.00000000  0.27933900  0.52840900  1
  Mg  Mg32  1  0.50000000  0.27933900  0.52840900  1
  Mg  Mg33  1  1.00000000  0.61267300  0.52840900  1
  Mg  Mg34  1  0.75000000  0.28785500  0.59677900  1
  Mg  Mg35  1  0.25000000  0.81077100  0.55094800  1
  Mg  Mg36  1  0.25000000  0.42309100  0.57424000  1
  Mg  Mg37  1  0.75000000  0.92346700  0.57348700  1
  Mg  Mg38  1  0.75000000  0.53578700  0.59677900  1
  Mg  Mg39  1  0.25000000  0.05870200  0.55094800  1
  Mg  Mg40  1  0.50000000  0.06721800  0.61931800  1
  Mg  Mg41  1  1.00000000  0.73388500  0.61931800  1
  Mg  Mg42  1  0.50000000  0.73388500  0.61931800  1
  Mg  Mg43  1  1.00000000  0.06721800  0.61931800  1
  Mg  Mg44  1  0.75000000  0.74240100  0.68768800  1
  Mg  Mg45  1  0.25000000  0.26531600  0.64185700  1
  Mg  Mg46  1  0.25000000  0.87763600  0.66514900  1
  Mg  Mg47  1  0.75000000  0.37801200  0.66439700  1
  Mg  Mg48  1  0.75000000  0.99033200  0.68768800  1
  Mg  Mg49  1  0.25000000  0.51324700  0.64185700  1
  Mg  Mg50  1  0.50000000  0.52176400  0.71022700  1
  Mg  Mg51  1  1.00000000  0.18843000  0.71022700  1
  Mg  Mg52  1  0.50000000  0.18843000  0.71022700  1
  Mg  Mg53  1  0.00000000  0.52176400  0.71022700  1
  Mg  Mg54  1  0.75000000  0.19694600  0.77859700  1
  Mg  Mg55  1  0.25000000  0.71986200  0.73276600  1
  Mg  Mg56  1  0.25000000  0.33218200  0.75605800  1
  Mg  Mg57  1  0.75000000  0.83255800  0.75530600  1
  Mg  Mg58  1  0.75000000  0.44487800  0.77859700  1
  Mg  Mg59  1  0.25000000  0.96779300  0.73276600  1
  Mg  Mg60  1  0.50000000  0.97630900  0.80113600  1
  Mg  Mg61  1  1.00000000  0.64297600  0.80113600  1
  Mg  Mg62  1  0.50000000  0.64297600  0.80113600  1
  Mg  Mg63  1  1.00000000  0.97630900  0.80113600  1
  Hg  Hg64  1  0.25000000  0.09240400  0.23561300  1
  Hg  Hg65  1  0.75000000  0.07233500  0.27575100  1
  Hg  Hg66  1  0.75000000  0.75947000  0.29110200  1
  Hg  Hg67  1  0.25000000  0.24943600  0.31117100  1
  Hg  Hg68  1  0.25000000  0.54694900  0.32652200  1
  Hg  Hg69  1  0.75000000  0.52688100  0.36666000  1
  Hg  Hg70  1  0.75000000  0.36984900  0.29110200  1
  Hg  Hg71  1  0.25000000  0.85981400  0.31117100  1
  Hg  Hg72  1  0.75000000  0.21401600  0.38201100  1
  Hg  Hg73  1  0.25000000  0.70398100  0.40208000  1
  Hg  Hg74  1  0.25000000  0.00149500  0.41743100  1
  Hg  Hg75  1  0.75000000  0.98142600  0.45756900  1
  Hg  Hg76  1  0.75000000  0.82439400  0.38201100  1
  Hg  Hg77  1  0.25000000  0.31436000  0.40208000  1
  Hg  Hg78  1  0.75000000  0.66856100  0.47292000  1
  Hg  Hg79  1  0.25000000  0.15852700  0.49298900  1
  Hg  Hg80  1  0.25000000  0.45604000  0.50834000  1
  Hg  Hg81  1  0.75000000  0.43597200  0.54847800  1
  Hg  Hg82  1  0.75000000  0.27894000  0.47292000  1
  Hg  Hg83  1  0.25000000  0.76890500  0.49298900  1
  Hg  Hg84  1  0.75000000  0.12310700  0.56382900  1
  Hg  Hg85  1  0.25000000  0.61307200  0.58389800  1
  Hg  Hg86  1  0.25000000  0.91058600  0.59924900  1
  Hg  Hg87  1  0.75000000  0.89051700  0.63938700  1
  Hg  Hg88  1  0.75000000  0.73348500  0.56382900  1
  Hg  Hg89  1  0.25000000  0.22345100  0.58389800  1
  Hg  Hg90  1  0.75000000  0.57765200  0.65473800  1
  Hg  Hg91  1  0.25000000  0.06761800  0.67480700  1
  Hg  Hg92  1  0.25000000  0.36513100  0.69015800  1
  Hg  Hg93  1  0.75000000  0.34506200  0.73029600  1
  Hg  Hg94  1  0.75000000  0.18803100  0.65473800  1
  Hg  Hg95  1  0.25000000  0.67799600  0.67480700  1
  Hg  Hg96  1  0.75000000  0.03219700  0.74564700  1
  Hg  Hg97  1  0.25000000  0.52216300  0.76571600  1
  Hg  Hg98  1  0.25000000  0.81967700  0.78106800  1
  Hg  Hg99  1  0.75000000  0.79960800  0.82120500  1
  Hg  Hg100  1  0.75000000  0.64257600  0.74564700  1
  Hg  Hg101  1  0.25000000  0.13254200  0.76571600  1
