# generated using pymatgen
data_Mg5B21
_symmetry_space_group_name_H-M   'P 1'
_cell_length_a   5.48489200
_cell_length_b   7.42725500
_cell_length_c   43.97385800
_cell_angle_alpha   90.00000000
_cell_angle_beta   90.00000000
_cell_angle_gamma   90.00000000
_symmetry_Int_Tables_number   1
_chemical_formula_structural   Mg5B21
_chemical_formula_sum   'Mg20 B84'
_cell_volume   1791.39346265
_cell_formula_units_Z   4
loop_
 _symmetry_equiv_pos_site_id
 _symmetry_equiv_pos_as_xyz
  1  'x, y, z'
loop_
 _atom_site_type_symbol
 _atom_site_label
 _atom_site_symmetry_multiplicity
 _atom_site_fract_x
 _atom_site_fract_y
 _atom_site_fract_z
 _atom_site_occupancy
  Mg  Mg0  1  0.45432300  0.63778600  0.36500000  1
  Mg  Mg1  1  0.54567700  0.36221400  0.31500000  1
  Mg  Mg2  1  0.95432300  0.86221400  0.36500000  1
  Mg  Mg3  1  0.04567700  0.13778600  0.31500000  1
  Mg  Mg4  1  0.45432300  0.63778600  0.46500000  1
  Mg  Mg5  1  0.54567700  0.36221400  0.41500000  1
  Mg  Mg6  1  0.95432300  0.86221400  0.46500000  1
  Mg  Mg7  1  0.04567700  0.13778600  0.41500000  1
  Mg  Mg8  1  0.45432300  0.63778600  0.56500000  1
  Mg  Mg9  1  0.54567700  0.36221400  0.51500000  1
  Mg  Mg10  1  0.95432300  0.86221400  0.56500000  1
  Mg  Mg11  1  0.04567700  0.13778600  0.51500000  1
  Mg  Mg12  1  0.45432300  0.63778600  0.66500000  1
  Mg  Mg13  1  0.54567700  0.36221400  0.61500000  1
  Mg  Mg14  1  0.95432300  0.86221400  0.66500000  1
  Mg  Mg15  1  0.04567700  0.13778600  0.61500000  1
  Mg  Mg16  1  0.45432300  0.63778600  0.76500000  1
  Mg  Mg17  1  0.54567700  0.36221400  0.71500000  1
  Mg  Mg18  1  0.95432300  0.86221400  0.76500000  1
  Mg  Mg19  1  0.04567700  0.13778600  0.71500000  1
  B  B20  1  0.36767100  0.93678000  0.28420000  1
  B  B21  1  0.13232900  0.43678000  0.29580000  1
  B  B22  1  0.63232900  0.06322000  0.29580000  1
  B  B23  1  0.86767100  0.56322000  0.28420000  1
  B  B24  1  0.77761600  0.15368900  0.36500000  1
  B  B25  1  0.22238400  0.84631100  0.31500000  1
  B  B26  1  0.27761600  0.34631100  0.36500000  1
  B  B27  1  0.72238400  0.65368900  0.31500000  1
  B  B28  1  0.94662700  0.35305900  0.36500000  1
  B  B29  1  0.05337300  0.64694100  0.31500000  1
  B  B30  1  0.44662700  0.14694100  0.36500000  1
  B  B31  1  0.55337300  0.85305900  0.31500000  1
  B  B32  1  0.36767100  0.93678000  0.38420000  1
  B  B33  1  0.63232900  0.06322000  0.33420000  1
  B  B34  1  0.86767100  0.56322000  0.34580000  1
  B  B35  1  0.13232900  0.43678000  0.39580000  1
  B  B36  1  0.63232900  0.06322000  0.39580000  1
  B  B37  1  0.36767100  0.93678000  0.34580000  1
  B  B38  1  0.13232900  0.43678000  0.33420000  1
  B  B39  1  0.86767100  0.56322000  0.38420000  1
  B  B40  1  0.77761600  0.15368900  0.46500000  1
  B  B41  1  0.22238400  0.84631100  0.41500000  1
  B  B42  1  0.27761600  0.34631100  0.46500000  1
  B  B43  1  0.72238400  0.65368900  0.41500000  1
  B  B44  1  0.94662700  0.35305900  0.46500000  1
  B  B45  1  0.05337300  0.64694100  0.41500000  1
  B  B46  1  0.44662700  0.14694100  0.46500000  1
  B  B47  1  0.55337300  0.85305900  0.41500000  1
  B  B48  1  0.36767100  0.93678000  0.48420000  1
  B  B49  1  0.63232900  0.06322000  0.43420000  1
  B  B50  1  0.86767100  0.56322000  0.44580000  1
  B  B51  1  0.13232900  0.43678000  0.49580000  1
  B  B52  1  0.63232900  0.06322000  0.49580000  1
  B  B53  1  0.36767100  0.93678000  0.44580000  1
  B  B54  1  0.13232900  0.43678000  0.43420000  1
  B  B55  1  0.86767100  0.56322000  0.48420000  1
  B  B56  1  0.77761600  0.15368900  0.56500000  1
  B  B57  1  0.22238400  0.84631100  0.51500000  1
  B  B58  1  0.27761600  0.34631100  0.56500000  1
  B  B59  1  0.72238400  0.65368900  0.51500000  1
  B  B60  1  0.94662700  0.35305900  0.56500000  1
  B  B61  1  0.05337300  0.64694100  0.51500000  1
  B  B62  1  0.44662700  0.14694100  0.56500000  1
  B  B63  1  0.55337300  0.85305900  0.51500000  1
  B  B64  1  0.36767100  0.93678000  0.58420000  1
  B  B65  1  0.63232900  0.06322000  0.53420000  1
  B  B66  1  0.86767100  0.56322000  0.54580000  1
  B  B67  1  0.13232900  0.43678000  0.59580000  1
  B  B68  1  0.63232900  0.06322000  0.59580000  1
  B  B69  1  0.36767100  0.93678000  0.54580000  1
  B  B70  1  0.13232900  0.43678000  0.53420000  1
  B  B71  1  0.86767100  0.56322000  0.58420000  1
  B  B72  1  0.77761600  0.15368900  0.66500000  1
  B  B73  1  0.22238400  0.84631100  0.61500000  1
  B  B74  1  0.27761600  0.34631100  0.66500000  1
  B  B75  1  0.72238400  0.65368900  0.61500000  1
  B  B76  1  0.94662700  0.35305900  0.66500000  1
  B  B77  1  0.05337300  0.64694100  0.61500000  1
  B  B78  1  0.44662700  0.14694100  0.66500000  1
  B  B79  1  0.55337300  0.85305900  0.61500000  1
  B  B80  1  0.36767100  0.93678000  0.68420000  1
  B  B81  1  0.63232900  0.06322000  0.63420000  1
  B  B82  1  0.86767100  0.56322000  0.64580000  1
  B  B83  1  0.13232900  0.43678000  0.69580000  1
  B  B84  1  0.63232900  0.06322000  0.69580000  1
  B  B85  1  0.36767100  0.93678000  0.64580000  1
  B  B86  1  0.13232900  0.43678000  0.63420000  1
  B  B87  1  0.86767100  0.56322000  0.68420000  1
  B  B88  1  0.77761600  0.15368900  0.76500000  1
  B  B89  1  0.22238400  0.84631100  0.71500000  1
  B  B90  1  0.27761600  0.34631100  0.76500000  1
  B  B91  1  0.72238400  0.65368900  0.71500000  1
  B  B92  1  0.94662700  0.35305900  0.76500000  1
  B  B93  1  0.05337300  0.64694100  0.71500000  1
  B  B94  1  0.44662700  0.14694100  0.76500000  1
  B  B95  1  0.55337300  0.85305900  0.71500000  1
  B  B96  1  0.36767100  0.93678000  0.78420000  1
  B  B97  1  0.63232900  0.06322000  0.73420000  1
  B  B98  1  0.86767100  0.56322000  0.74580000  1
  B  B99  1  0.13232900  0.43678000  0.79580000  1
  B  B100  1  0.63232900  0.06322000  0.79580000  1
  B  B101  1  0.36767100  0.93678000  0.74580000  1
  B  B102  1  0.13232900  0.43678000  0.73420000  1
  B  B103  1  0.86767100  0.56322000  0.78420000  1
