# generated using pymatgen
data_Mg40Al79
_symmetry_space_group_name_H-M   'P 1'
_cell_length_a   9.54358615
_cell_length_b   10.24190089
_cell_length_c   42.48596600
_cell_angle_alpha   92.17885991
_cell_angle_beta   83.55124098
_cell_angle_gamma   62.23093986
_symmetry_Int_Tables_number   1
_chemical_formula_structural   Mg40Al79
_chemical_formula_sum   'Mg40 Al79'
_cell_volume   3631.92719116
_cell_formula_units_Z   1
loop_
 _symmetry_equiv_pos_site_id
 _symmetry_equiv_pos_as_xyz
  1  'x, y, z'
loop_
 _atom_site_type_symbol
 _atom_site_label
 _atom_site_symmetry_multiplicity
 _atom_site_fract_x
 _atom_site_fract_y
 _atom_site_fract_z
 _atom_site_occupancy
  Mg  Mg0  1  0.06656200  0.53374000  0.22033900  1
  Mg  Mg1  1  0.64989500  0.06499000  0.18908900  1
  Mg  Mg2  1  0.46698100  0.40795300  0.21195300  1
  Mg  Mg3  1  0.88364800  0.87670300  0.24320300  1
  Mg  Mg4  1  0.56656200  0.47124000  0.28283900  1
  Mg  Mg5  1  0.14989500  0.00249000  0.25158900  1
  Mg  Mg6  1  0.96698100  0.34545300  0.27445300  1
  Mg  Mg7  1  0.38364800  0.81420300  0.30570300  1
  Mg  Mg8  1  0.06656200  0.40874000  0.34533900  1
  Mg  Mg9  1  0.64989500  0.93999000  0.31408900  1
  Mg  Mg10  1  0.46698100  0.28295300  0.33695300  1
  Mg  Mg11  1  0.88364800  0.75170300  0.36820300  1
  Mg  Mg12  1  0.56656200  0.34624000  0.40783900  1
  Mg  Mg13  1  0.14989500  0.87749000  0.37658900  1
  Mg  Mg14  1  0.96698100  0.22045300  0.39945300  1
  Mg  Mg15  1  0.38364800  0.68920300  0.43070300  1
  Mg  Mg16  1  0.06656200  0.28374000  0.47033900  1
  Mg  Mg17  1  0.64989500  0.81499000  0.43908900  1
  Mg  Mg18  1  0.46698100  0.15795300  0.46195300  1
  Mg  Mg19  1  0.88364800  0.62670300  0.49320300  1
  Mg  Mg20  1  0.56656200  0.22124000  0.53283900  1
  Mg  Mg21  1  0.14989500  0.75249000  0.50158900  1
  Mg  Mg22  1  0.96698100  0.09545300  0.52445300  1
  Mg  Mg23  1  0.38364800  0.56420300  0.55570300  1
  Mg  Mg24  1  0.06656200  0.15874000  0.59533900  1
  Mg  Mg25  1  0.64989500  0.68999000  0.56408900  1
  Mg  Mg26  1  0.46698100  0.03295300  0.58695300  1
  Mg  Mg27  1  0.88364800  0.50170300  0.61820300  1
  Mg  Mg28  1  0.56656200  0.09624000  0.65783900  1
  Mg  Mg29  1  0.14989500  0.62749000  0.62658900  1
  Mg  Mg30  1  0.96698100  0.97045300  0.64945300  1
  Mg  Mg31  1  0.38364800  0.43920300  0.68070300  1
  Mg  Mg32  1  0.06656200  0.03374000  0.72033900  1
  Mg  Mg33  1  0.64989500  0.56499000  0.68908900  1
  Mg  Mg34  1  0.46698100  0.90795300  0.71195300  1
  Mg  Mg35  1  0.88364800  0.37670300  0.74320300  1
  Mg  Mg36  1  0.56656200  0.97124000  0.78283900  1
  Mg  Mg37  1  0.14989500  0.50249000  0.75158900  1
  Mg  Mg38  1  0.96698100  0.84545300  0.77445300  1
  Mg  Mg39  1  0.38364800  0.31420300  0.80570300  1
  Al  Al40  1  0.76677200  0.47084600  0.21614600  1
  Al  Al41  1  0.51677200  0.93959600  0.24739600  1
  Al  Al42  1  0.80643400  0.20447000  0.23252200  1
  Al  Al43  1  0.22710900  0.73572000  0.20127200  1
  Al  Al44  1  0.47109700  0.70522100  0.23177100  1
  Al  Al45  1  0.06244600  0.23647100  0.20052100  1
  Al  Al46  1  0.30643400  0.20597300  0.23101900  1
  Al  Al47  1  0.72710900  0.73722300  0.19976900  1
  Al  Al48  1  0.26677200  0.40834600  0.27864600  1
  Al  Al49  1  0.01677200  0.87709600  0.30989600  1
  Al  Al50  1  0.30643400  0.14197000  0.29502200  1
  Al  Al51  1  0.72710900  0.67322000  0.26377200  1
  Al  Al52  1  0.97109700  0.64272100  0.29427100  1
  Al  Al53  1  0.56244600  0.17397100  0.26302100  1
  Al  Al54  1  0.80643400  0.14347300  0.29351900  1
  Al  Al55  1  0.22710900  0.67472300  0.26226900  1
  Al  Al56  1  0.76677200  0.34584600  0.34114600  1
  Al  Al57  1  0.51677200  0.81459600  0.37239600  1
  Al  Al58  1  0.80643400  0.07947000  0.35752200  1
  Al  Al59  1  0.22710900  0.61072000  0.32627200  1
  Al  Al60  1  0.47109700  0.58022100  0.35677100  1
  Al  Al61  1  0.06244600  0.11147100  0.32552100  1
  Al  Al62  1  0.30643400  0.08097300  0.35601900  1
  Al  Al63  1  0.72710900  0.61222300  0.32476900  1
  Al  Al64  1  0.26677200  0.28334600  0.40364600  1
  Al  Al65  1  0.01677200  0.75209600  0.43489600  1
  Al  Al66  1  0.30643400  0.01697000  0.42002200  1
  Al  Al67  1  0.72710900  0.54822000  0.38877200  1
  Al  Al68  1  0.97109700  0.51772100  0.41927100  1
  Al  Al69  1  0.56244600  0.04897100  0.38802100  1
  Al  Al70  1  0.80643400  0.01847300  0.41851900  1
  Al  Al71  1  0.22710900  0.54972300  0.38726900  1
  Al  Al72  1  0.76677200  0.22084600  0.46614600  1
  Al  Al73  1  0.51677200  0.68959600  0.49739600  1
  Al  Al74  1  0.80643400  0.95447000  0.48252200  1
  Al  Al75  1  0.22710900  0.48572000  0.45127200  1
  Al  Al76  1  0.47109700  0.45522100  0.48177100  1
  Al  Al77  1  0.06244600  0.98647100  0.45052100  1
  Al  Al78  1  0.30643400  0.95597300  0.48101900  1
  Al  Al79  1  0.72710900  0.48722300  0.44976900  1
  Al  Al80  1  0.26677200  0.15834600  0.52864600  1
  Al  Al81  1  0.01677200  0.62709600  0.55989600  1
  Al  Al82  1  0.30643400  0.89197000  0.54502200  1
  Al  Al83  1  0.72710900  0.42322000  0.51377200  1
  Al  Al84  1  0.97109700  0.39272100  0.54427100  1
  Al  Al85  1  0.56244600  0.92397100  0.51302100  1
  Al  Al86  1  0.80643400  0.89347300  0.54351900  1
  Al  Al87  1  0.22710900  0.42472300  0.51226900  1
  Al  Al88  1  0.76677200  0.09584600  0.59114600  1
  Al  Al89  1  0.51677200  0.56459600  0.62239600  1
  Al  Al90  1  0.80643400  0.82947000  0.60752200  1
  Al  Al91  1  0.22710900  0.36072000  0.57627200  1
  Al  Al92  1  0.47109700  0.33022100  0.60677100  1
  Al  Al93  1  0.06244600  0.86147100  0.57552100  1
  Al  Al94  1  0.30643400  0.83097300  0.60601900  1
  Al  Al95  1  0.72710900  0.36222300  0.57476900  1
  Al  Al96  1  0.26677200  0.03334600  0.65364600  1
  Al  Al97  1  0.01677200  0.50209600  0.68489600  1
  Al  Al98  1  0.30643400  0.76697000  0.67002200  1
  Al  Al99  1  0.72710900  0.29822000  0.63877200  1
  Al  Al100  1  0.97109700  0.26772100  0.66927100  1
  Al  Al101  1  0.56244600  0.79897100  0.63802100  1
  Al  Al102  1  0.80643400  0.76847300  0.66851900  1
  Al  Al103  1  0.22710900  0.29972300  0.63726900  1
  Al  Al104  1  0.76677200  0.97084600  0.71614600  1
  Al  Al105  1  0.51677200  0.43959600  0.74739600  1
  Al  Al106  1  0.80643400  0.70447000  0.73252200  1
  Al  Al107  1  0.22710900  0.23572000  0.70127200  1
  Al  Al108  1  0.47109700  0.20522100  0.73177100  1
  Al  Al109  1  0.06244600  0.73647100  0.70052100  1
  Al  Al110  1  0.30643400  0.70597300  0.73101900  1
  Al  Al111  1  0.72710900  0.23722300  0.69976900  1
  Al  Al112  1  0.26677200  0.90834600  0.77864600  1
  Al  Al113  1  0.30643400  0.64197000  0.79502200  1
  Al  Al114  1  0.72710900  0.17322000  0.76377200  1
  Al  Al115  1  0.97109700  0.14272100  0.79427100  1
  Al  Al116  1  0.56244600  0.67397100  0.76302100  1
  Al  Al117  1  0.80643400  0.64347300  0.79351900  1
  Al  Al118  1  0.22710900  0.17472300  0.76226900  1
