# generated using pymatgen
data_Tb36Mg71
_symmetry_space_group_name_H-M   'P 1'
_cell_length_a   10.53517100
_cell_length_b   11.52336579
_cell_length_c   43.68781600
_cell_angle_alpha   93.83792519
_cell_angle_beta   90.00000000
_cell_angle_gamma   62.79843814
_symmetry_Int_Tables_number   1
_chemical_formula_structural   Tb36Mg71
_chemical_formula_sum   'Tb36 Mg71'
_cell_volume   4703.77950076
_cell_formula_units_Z   1
loop_
 _symmetry_equiv_pos_site_id
 _symmetry_equiv_pos_as_xyz
  1  'x, y, z'
loop_
 _atom_site_type_symbol
 _atom_site_label
 _atom_site_symmetry_multiplicity
 _atom_site_fract_x
 _atom_site_fract_y
 _atom_site_fract_z
 _atom_site_occupancy
  Tb  Tb0  1  0.08538800  0.52720000  0.23473000  1
  Tb  Tb1  1  0.65205500  0.06053400  0.20139700  1
  Tb  Tb2  1  0.47716800  0.41030800  0.22638100  1
  Tb  Tb3  1  0.91050100  0.87697400  0.25971400  1
  Tb  Tb4  1  0.61872200  0.46053400  0.30139700  1
  Tb  Tb5  1  0.18538800  0.99386700  0.26806400  1
  Tb  Tb6  1  0.01050100  0.34364100  0.29304700  1
  Tb  Tb7  1  0.44383500  0.81030800  0.32638100  1
  Tb  Tb8  1  0.15205500  0.39386700  0.36806400  1
  Tb  Tb9  1  0.71872200  0.92720000  0.33473000  1
  Tb  Tb10  1  0.54383500  0.27697400  0.35971400  1
  Tb  Tb11  1  0.97716800  0.74364100  0.39304700  1
  Tb  Tb12  1  0.68538800  0.32720000  0.43473000  1
  Tb  Tb13  1  0.25205500  0.86053400  0.40139700  1
  Tb  Tb14  1  0.07716800  0.21030800  0.42638100  1
  Tb  Tb15  1  0.51050100  0.67697400  0.45971400  1
  Tb  Tb16  1  0.21872200  0.26053400  0.50139700  1
  Tb  Tb17  1  0.78538800  0.79386700  0.46806400  1
  Tb  Tb18  1  0.61050100  0.14364100  0.49304700  1
  Tb  Tb19  1  0.04383500  0.61030800  0.52638100  1
  Tb  Tb20  1  0.75205500  0.19386700  0.56806400  1
  Tb  Tb21  1  0.31872200  0.72720000  0.53473000  1
  Tb  Tb22  1  0.14383500  0.07697400  0.55971400  1
  Tb  Tb23  1  0.57716800  0.54364100  0.59304700  1
  Tb  Tb24  1  0.28538800  0.12720000  0.63473000  1
  Tb  Tb25  1  0.85205500  0.66053400  0.60139700  1
  Tb  Tb26  1  0.67716800  0.01030800  0.62638100  1
  Tb  Tb27  1  0.11050100  0.47697400  0.65971400  1
  Tb  Tb28  1  0.81872200  0.06053400  0.70139700  1
  Tb  Tb29  1  0.38538800  0.59386700  0.66806400  1
  Tb  Tb30  1  0.21050100  0.94364100  0.69304700  1
  Tb  Tb31  1  0.64383500  0.41030800  0.72638100  1
  Tb  Tb32  1  0.35205500  0.99386700  0.76806400  1
  Tb  Tb33  1  0.91872200  0.52720000  0.73473000  1
  Tb  Tb34  1  0.74383500  0.87697400  0.75971400  1
  Tb  Tb35  1  0.17716800  0.34364100  0.79304700  1
  Mg  Mg36  1  0.78127800  0.46875400  0.23055600  1
  Mg  Mg37  1  0.54794500  0.93542100  0.26388900  1
  Mg  Mg38  1  0.73315700  0.73636000  0.21294900  1
  Mg  Mg39  1  0.32846000  0.20302700  0.24628300  1
  Mg  Mg40  1  0.06930900  0.23542100  0.21388900  1
  Mg  Mg41  1  0.49324700  0.70208700  0.24722200  1
  Mg  Mg42  1  0.23409700  0.73448100  0.21482800  1
  Mg  Mg43  1  0.82939900  0.20114800  0.24816200  1
  Mg  Mg44  1  0.31461200  0.40208700  0.29722200  1
  Mg  Mg45  1  0.08127800  0.86875400  0.33055600  1
  Mg  Mg46  1  0.26649100  0.66969400  0.27961600  1
  Mg  Mg47  1  0.86179300  0.13636000  0.31294900  1
  Mg  Mg48  1  0.60264200  0.16875400  0.28055600  1
  Mg  Mg49  1  0.02658100  0.63542100  0.31388900  1
  Mg  Mg50  1  0.76743000  0.66781500  0.28149500  1
  Mg  Mg51  1  0.36273300  0.13448100  0.31482800  1
  Mg  Mg52  1  0.84794500  0.33542100  0.36388900  1
  Mg  Mg53  1  0.61461200  0.80208700  0.39722200  1
  Mg  Mg54  1  0.79982400  0.60302700  0.34628300  1
  Mg  Mg55  1  0.39512600  0.06969400  0.37961600  1
  Mg  Mg56  1  0.13597600  0.10208700  0.34722200  1
  Mg  Mg57  1  0.55991400  0.56875400  0.38055600  1
  Mg  Mg58  1  0.30076300  0.60114800  0.34816200  1
  Mg  Mg59  1  0.89606600  0.06781500  0.38149500  1
  Mg  Mg60  1  0.38127800  0.26875400  0.43055600  1
  Mg  Mg61  1  0.14794500  0.73542100  0.46388900  1
  Mg  Mg62  1  0.33315700  0.53636000  0.41294900  1
  Mg  Mg63  1  0.92846000  0.00302700  0.44628300  1
  Mg  Mg64  1  0.66930900  0.03542100  0.41388900  1
  Mg  Mg65  1  0.09324700  0.50208700  0.44722200  1
  Mg  Mg66  1  0.83409700  0.53448100  0.41482800  1
  Mg  Mg67  1  0.42939900  0.00114800  0.44816200  1
  Mg  Mg68  1  0.91461200  0.20208700  0.49722200  1
  Mg  Mg69  1  0.68127800  0.66875400  0.53055600  1
  Mg  Mg70  1  0.86649100  0.46969400  0.47961600  1
  Mg  Mg71  1  0.46179300  0.93636000  0.51294900  1
  Mg  Mg72  1  0.20264200  0.96875400  0.48055600  1
  Mg  Mg73  1  0.62658100  0.43542100  0.51388900  1
  Mg  Mg74  1  0.36743000  0.46781500  0.48149500  1
  Mg  Mg75  1  0.96273300  0.93448100  0.51482800  1
  Mg  Mg76  1  0.44794500  0.13542100  0.56388900  1
  Mg  Mg77  1  0.21461200  0.60208700  0.59722200  1
  Mg  Mg78  1  0.39982400  0.40302700  0.54628300  1
  Mg  Mg79  1  0.99512600  0.86969400  0.57961600  1
  Mg  Mg80  1  0.73597600  0.90208700  0.54722200  1
  Mg  Mg81  1  0.15991400  0.36875400  0.58055600  1
  Mg  Mg82  1  0.90076300  0.40114800  0.54816200  1
  Mg  Mg83  1  0.49606600  0.86781500  0.58149500  1
  Mg  Mg84  1  0.98127800  0.06875400  0.63055600  1
  Mg  Mg85  1  0.74794500  0.53542100  0.66388900  1
  Mg  Mg86  1  0.93315700  0.33636000  0.61294900  1
  Mg  Mg87  1  0.52846000  0.80302700  0.64628300  1
  Mg  Mg88  1  0.26930900  0.83542100  0.61388900  1
  Mg  Mg89  1  0.69324700  0.30208700  0.64722200  1
  Mg  Mg90  1  0.43409700  0.33448100  0.61482800  1
  Mg  Mg91  1  0.02939900  0.80114800  0.64816200  1
  Mg  Mg92  1  0.51461200  0.00208700  0.69722200  1
  Mg  Mg93  1  0.28127800  0.46875400  0.73055600  1
  Mg  Mg94  1  0.46649100  0.26969400  0.67961600  1
  Mg  Mg95  1  0.06179300  0.73636000  0.71294900  1
  Mg  Mg96  1  0.80264200  0.76875400  0.68055600  1
  Mg  Mg97  1  0.22658100  0.23542100  0.71388900  1
  Mg  Mg98  1  0.96743000  0.26781500  0.68149500  1
  Mg  Mg99  1  0.56273300  0.73448100  0.71482800  1
  Mg  Mg100  1  0.04794500  0.93542100  0.76388900  1
  Mg  Mg101  1  0.99982400  0.20302700  0.74628300  1
  Mg  Mg102  1  0.59512600  0.66969400  0.77961600  1
  Mg  Mg103  1  0.33597600  0.70208700  0.74722200  1
  Mg  Mg104  1  0.75991400  0.16875400  0.78055600  1
  Mg  Mg105  1  0.50076300  0.20114800  0.74816200  1
  Mg  Mg106  1  0.09606600  0.66781500  0.78149500  1
