# generated using pymatgen
data_Mg2Ir3
_symmetry_space_group_name_H-M   'P 1'
_cell_length_a   9.72091470
_cell_length_b   10.02721169
_cell_length_c   42.99921300
_cell_angle_alpha   94.02267208
_cell_angle_beta   94.30460560
_cell_angle_gamma   92.31047724
_symmetry_Int_Tables_number   1
_chemical_formula_structural   Mg2Ir3
_chemical_formula_sum   'Mg60 Ir90'
_cell_volume   4164.79203527
_cell_formula_units_Z   30
loop_
 _symmetry_equiv_pos_site_id
 _symmetry_equiv_pos_as_xyz
  1  'x, y, z'
loop_
 _atom_site_type_symbol
 _atom_site_label
 _atom_site_symmetry_multiplicity
 _atom_site_fract_x
 _atom_site_fract_y
 _atom_site_fract_z
 _atom_site_occupancy
  Mg  Mg0  1  0.57620900  0.27522300  0.26352000  1
  Mg  Mg1  1  0.72379100  0.02477700  0.23648000  1
  Mg  Mg2  1  0.08465300  0.40194300  0.20621300  1
  Mg  Mg3  1  0.21534700  0.89805700  0.29378700  1
  Mg  Mg4  1  0.59200700  0.52392800  0.22647300  1
  Mg  Mg5  1  0.70799300  0.77607200  0.27352700  1
  Mg  Mg6  1  0.29784200  0.17478900  0.25755900  1
  Mg  Mg7  1  0.00215800  0.12521100  0.24244100  1
  Mg  Mg8  1  0.07818400  0.42070000  0.27975300  1
  Mg  Mg9  1  0.22181600  0.87930000  0.22024700  1
  Mg  Mg10  1  0.47620900  0.57522300  0.36352000  1
  Mg  Mg11  1  0.62379100  0.32477700  0.33648000  1
  Mg  Mg12  1  0.98465300  0.70194300  0.30621300  1
  Mg  Mg13  1  0.11534700  0.19805700  0.39378700  1
  Mg  Mg14  1  0.49200700  0.82392800  0.32647300  1
  Mg  Mg15  1  0.60799300  0.07607200  0.37352700  1
  Mg  Mg16  1  0.19784200  0.47478900  0.35755900  1
  Mg  Mg17  1  0.90215800  0.42521100  0.34244100  1
  Mg  Mg18  1  0.97818400  0.72070000  0.37975300  1
  Mg  Mg19  1  0.12181600  0.17930000  0.32024700  1
  Mg  Mg20  1  0.37620900  0.87522300  0.46352000  1
  Mg  Mg21  1  0.52379100  0.62477700  0.43648000  1
  Mg  Mg22  1  0.88465300  0.00194300  0.40621300  1
  Mg  Mg23  1  0.01534700  0.49805700  0.49378700  1
  Mg  Mg24  1  0.39200700  0.12392800  0.42647300  1
  Mg  Mg25  1  0.50799300  0.37607200  0.47352700  1
  Mg  Mg26  1  0.09784200  0.77478900  0.45755900  1
  Mg  Mg27  1  0.80215800  0.72521100  0.44244100  1
  Mg  Mg28  1  0.87818400  0.02070000  0.47975300  1
  Mg  Mg29  1  0.02181600  0.47930000  0.42024700  1
  Mg  Mg30  1  0.27620900  0.17522300  0.56352000  1
  Mg  Mg31  1  0.42379100  0.92477700  0.53648000  1
  Mg  Mg32  1  0.78465300  0.30194300  0.50621300  1
  Mg  Mg33  1  0.91534700  0.79805700  0.59378700  1
  Mg  Mg34  1  0.29200700  0.42392800  0.52647300  1
  Mg  Mg35  1  0.40799300  0.67607200  0.57352700  1
  Mg  Mg36  1  0.99784200  0.07478900  0.55755900  1
  Mg  Mg37  1  0.70215800  0.02521100  0.54244100  1
  Mg  Mg38  1  0.77818400  0.32070000  0.57975300  1
  Mg  Mg39  1  0.92181600  0.77930000  0.52024700  1
  Mg  Mg40  1  0.17620900  0.47522300  0.66352000  1
  Mg  Mg41  1  0.32379100  0.22477700  0.63648000  1
  Mg  Mg42  1  0.68465300  0.60194300  0.60621300  1
  Mg  Mg43  1  0.81534700  0.09805700  0.69378700  1
  Mg  Mg44  1  0.19200700  0.72392800  0.62647300  1
  Mg  Mg45  1  0.30799300  0.97607200  0.67352700  1
  Mg  Mg46  1  0.89784200  0.37478900  0.65755900  1
  Mg  Mg47  1  0.60215800  0.32521100  0.64244100  1
  Mg  Mg48  1  0.67818400  0.62070000  0.67975300  1
  Mg  Mg49  1  0.82181600  0.07930000  0.62024700  1
  Mg  Mg50  1  0.07620900  0.77522300  0.76352000  1
  Mg  Mg51  1  0.22379100  0.52477700  0.73648000  1
  Mg  Mg52  1  0.58465300  0.90194300  0.70621300  1
  Mg  Mg53  1  0.71534700  0.39805700  0.79378700  1
  Mg  Mg54  1  0.09200700  0.02392800  0.72647300  1
  Mg  Mg55  1  0.20799300  0.27607200  0.77352700  1
  Mg  Mg56  1  0.79784200  0.67478900  0.75755900  1
  Mg  Mg57  1  0.50215800  0.62521100  0.74244100  1
  Mg  Mg58  1  0.57818400  0.92070000  0.77975300  1
  Mg  Mg59  1  0.72181600  0.37930000  0.72024700  1
  Ir  Ir60  1  0.45196300  0.05916100  0.21028000  1
  Ir  Ir61  1  0.84803700  0.24083900  0.28972000  1
  Ir  Ir62  1  0.82890900  0.33514000  0.23520400  1
  Ir  Ir63  1  0.47109100  0.96486000  0.26479600  1
  Ir  Ir64  1  0.52118900  0.81456700  0.21469800  1
  Ir  Ir65  1  0.77881100  0.48543300  0.28530200  1
  Ir  Ir66  1  0.15000000  0.65000000  0.25000000  1
  Ir  Ir67  1  0.76397100  0.75532700  0.20410100  1
  Ir  Ir68  1  0.53602900  0.54467300  0.29589900  1
  Ir  Ir69  1  0.88861500  0.58607100  0.23972900  1
  Ir  Ir70  1  0.41138500  0.71392900  0.26027100  1
  Ir  Ir71  1  0.37544300  0.31418400  0.20609200  1
  Ir  Ir72  1  0.92455700  0.98581600  0.29390800  1
  Ir  Ir73  1  0.97134500  0.84545300  0.24712000  1
  Ir  Ir74  1  0.32865500  0.45454700  0.25288000  1
  Ir  Ir75  1  0.35196300  0.35916100  0.31028000  1
  Ir  Ir76  1  0.74803700  0.54083900  0.38972000  1
  Ir  Ir77  1  0.72890900  0.63514000  0.33520400  1
  Ir  Ir78  1  0.37109100  0.26486000  0.36479600  1
  Ir  Ir79  1  0.42118900  0.11456700  0.31469800  1
  Ir  Ir80  1  0.67881100  0.78543300  0.38530200  1
  Ir  Ir81  1  0.05000000  0.95000000  0.35000000  1
  Ir  Ir82  1  0.66397100  0.05532700  0.30410100  1
  Ir  Ir83  1  0.43602900  0.84467300  0.39589900  1
  Ir  Ir84  1  0.78861500  0.88607100  0.33972900  1
  Ir  Ir85  1  0.31138500  0.01392900  0.36027100  1
  Ir  Ir86  1  0.27544300  0.61418400  0.30609200  1
  Ir  Ir87  1  0.82455700  0.28581600  0.39390800  1
  Ir  Ir88  1  0.87134500  0.14545300  0.34712000  1
  Ir  Ir89  1  0.22865500  0.75454700  0.35288000  1
  Ir  Ir90  1  0.25196300  0.65916100  0.41028000  1
  Ir  Ir91  1  0.64803700  0.84083900  0.48972000  1
  Ir  Ir92  1  0.62890900  0.93514000  0.43520400  1
  Ir  Ir93  1  0.27109100  0.56486000  0.46479600  1
  Ir  Ir94  1  0.32118900  0.41456700  0.41469800  1
  Ir  Ir95  1  0.57881100  0.08543300  0.48530200  1
  Ir  Ir96  1  0.95000000  0.25000000  0.45000000  1
  Ir  Ir97  1  0.56397100  0.35532700  0.40410100  1
  Ir  Ir98  1  0.33602900  0.14467300  0.49589900  1
  Ir  Ir99  1  0.68861500  0.18607100  0.43972900  1
  Ir  Ir100  1  0.21138500  0.31392900  0.46027100  1
  Ir  Ir101  1  0.17544300  0.91418400  0.40609200  1
  Ir  Ir102  1  0.72455700  0.58581600  0.49390800  1
  Ir  Ir103  1  0.77134500  0.44545300  0.44712000  1
  Ir  Ir104  1  0.12865500  0.05454700  0.45288000  1
  Ir  Ir105  1  0.15196300  0.95916100  0.51028000  1
  Ir  Ir106  1  0.54803700  0.14083900  0.58972000  1
  Ir  Ir107  1  0.52890900  0.23514000  0.53520400  1
  Ir  Ir108  1  0.17109100  0.86486000  0.56479600  1
  Ir  Ir109  1  0.22118900  0.71456700  0.51469800  1
  Ir  Ir110  1  0.47881100  0.38543300  0.58530200  1
  Ir  Ir111  1  0.85000000  0.55000000  0.55000000  1
  Ir  Ir112  1  0.46397100  0.65532700  0.50410100  1
  Ir  Ir113  1  0.23602900  0.44467300  0.59589900  1
  Ir  Ir114  1  0.58861500  0.48607100  0.53972900  1
  Ir  Ir115  1  0.11138500  0.61392900  0.56027100  1
  Ir  Ir116  1  0.07544300  0.21418400  0.50609200  1
  Ir  Ir117  1  0.62455700  0.88581600  0.59390800  1
  Ir  Ir118  1  0.67134500  0.74545300  0.54712000  1
  Ir  Ir119  1  0.02865500  0.35454700  0.55288000  1
  Ir  Ir120  1  0.05196300  0.25916100  0.61028000  1
  Ir  Ir121  1  0.44803700  0.44083900  0.68972000  1
  Ir  Ir122  1  0.42890900  0.53514000  0.63520400  1
  Ir  Ir123  1  0.07109100  0.16486000  0.66479600  1
  Ir  Ir124  1  0.12118900  0.01456700  0.61469800  1
  Ir  Ir125  1  0.37881100  0.68543300  0.68530200  1
  Ir  Ir126  1  0.75000000  0.85000000  0.65000000  1
  Ir  Ir127  1  0.36397100  0.95532700  0.60410100  1
  Ir  Ir128  1  0.13602900  0.74467300  0.69589900  1
  Ir  Ir129  1  0.48861500  0.78607100  0.63972900  1
  Ir  Ir130  1  0.01138500  0.91392900  0.66027100  1
  Ir  Ir131  1  0.97544300  0.51418400  0.60609200  1
  Ir  Ir132  1  0.52455700  0.18581600  0.69390800  1
  Ir  Ir133  1  0.57134500  0.04545300  0.64712000  1
  Ir  Ir134  1  0.92865500  0.65454700  0.65288000  1
  Ir  Ir135  1  0.95196300  0.55916100  0.71028000  1
  Ir  Ir136  1  0.34803700  0.74083900  0.78972000  1
  Ir  Ir137  1  0.32890900  0.83514000  0.73520400  1
  Ir  Ir138  1  0.97109100  0.46486000  0.76479600  1
  Ir  Ir139  1  0.02118900  0.31456700  0.71469800  1
  Ir  Ir140  1  0.27881100  0.98543300  0.78530200  1
  Ir  Ir141  1  0.65000000  0.15000000  0.75000000  1
  Ir  Ir142  1  0.26397100  0.25532700  0.70410100  1
  Ir  Ir143  1  0.03602900  0.04467300  0.79589900  1
  Ir  Ir144  1  0.38861500  0.08607100  0.73972900  1
  Ir  Ir145  1  0.91138500  0.21392900  0.76027100  1
  Ir  Ir146  1  0.87544300  0.81418400  0.70609200  1
  Ir  Ir147  1  0.42455700  0.48581600  0.79390800  1
  Ir  Ir148  1  0.47134500  0.34545300  0.74712000  1
  Ir  Ir149  1  0.82865500  0.95454700  0.75288000  1
