# generated using pymatgen
data_Er3Mg
_symmetry_space_group_name_H-M   'P 1'
_cell_length_a   4.99581700
_cell_length_b   9.26954700
_cell_length_c   44.96235200
_cell_angle_alpha   90.00000000
_cell_angle_beta   90.00000000
_cell_angle_gamma   90.00000000
_symmetry_Int_Tables_number   1
_chemical_formula_structural   Er3Mg
_chemical_formula_sum   'Er33 Mg11'
_cell_volume   2082.15978208
_cell_formula_units_Z   11
loop_
 _symmetry_equiv_pos_site_id
 _symmetry_equiv_pos_as_xyz
  1  'x, y, z'
loop_
 _atom_site_type_symbol
 _atom_site_label
 _atom_site_symmetry_multiplicity
 _atom_site_fract_x
 _atom_site_fract_y
 _atom_site_fract_z
 _atom_site_occupancy
  Er  Er0  1  0.25000000  0.24071900  0.22222200  1
  Er  Er1  1  0.75000000  0.50000000  0.22222200  1
  Er  Er2  1  0.25000000  0.75928100  0.22222200  1
  Er  Er3  1  0.75000000  0.24071900  0.27777800  1
  Er  Er4  1  0.25000000  0.50000000  0.27777800  1
  Er  Er5  1  0.75000000  0.75928100  0.27777800  1
  Er  Er6  1  0.25000000  0.24071900  0.33333300  1
  Er  Er7  1  0.75000000  0.50000000  0.33333300  1
  Er  Er8  1  0.25000000  0.75928100  0.33333300  1
  Er  Er9  1  0.75000000  0.24071900  0.38888900  1
  Er  Er10  1  0.25000000  0.50000000  0.38888900  1
  Er  Er11  1  0.75000000  0.75928100  0.38888900  1
  Er  Er12  1  0.25000000  0.24071900  0.44444400  1
  Er  Er13  1  0.75000000  0.50000000  0.44444400  1
  Er  Er14  1  0.25000000  0.75928100  0.44444400  1
  Er  Er15  1  0.75000000  0.24071900  0.50000000  1
  Er  Er16  1  0.25000000  0.50000000  0.50000000  1
  Er  Er17  1  0.75000000  0.75928100  0.50000000  1
  Er  Er18  1  0.25000000  0.24071900  0.55555600  1
  Er  Er19  1  0.75000000  0.50000000  0.55555600  1
  Er  Er20  1  0.25000000  0.75928100  0.55555600  1
  Er  Er21  1  0.75000000  0.24071900  0.61111100  1
  Er  Er22  1  0.25000000  0.50000000  0.61111100  1
  Er  Er23  1  0.75000000  0.75928100  0.61111100  1
  Er  Er24  1  0.25000000  0.24071900  0.66666700  1
  Er  Er25  1  0.75000000  0.50000000  0.66666700  1
  Er  Er26  1  0.25000000  0.75928100  0.66666700  1
  Er  Er27  1  0.75000000  0.24071900  0.72222200  1
  Er  Er28  1  0.25000000  0.50000000  0.72222200  1
  Er  Er29  1  0.75000000  0.75928100  0.72222200  1
  Er  Er30  1  0.25000000  0.24071900  0.77777800  1
  Er  Er31  1  0.75000000  0.50000000  0.77777800  1
  Er  Er32  1  0.25000000  0.75928100  0.77777800  1
  Mg  Mg33  1  0.75000000  0.00000000  0.22222200  1
  Mg  Mg34  1  0.25000000  0.00000000  0.27777800  1
  Mg  Mg35  1  0.75000000  0.00000000  0.33333300  1
  Mg  Mg36  1  0.25000000  0.00000000  0.38888900  1
  Mg  Mg37  1  0.75000000  0.00000000  0.44444400  1
  Mg  Mg38  1  0.25000000  0.00000000  0.50000000  1
  Mg  Mg39  1  0.75000000  0.00000000  0.55555600  1
  Mg  Mg40  1  0.25000000  0.00000000  0.61111100  1
  Mg  Mg41  1  0.75000000  0.00000000  0.66666700  1
  Mg  Mg42  1  0.25000000  0.00000000  0.72222200  1
  Mg  Mg43  1  0.75000000  0.00000000  0.77777800  1
