# generated using pymatgen
data_Mg11In4
_symmetry_space_group_name_H-M   'P 1'
_cell_length_a   4.49922400
_cell_length_b   6.36286288
_cell_length_c   41.48079300
_cell_angle_alpha   94.39870259
_cell_angle_beta   90.00000000
_cell_angle_gamma   90.00000000
_symmetry_Int_Tables_number   1
_chemical_formula_structural   Mg11In4
_chemical_formula_sum   'Mg22 In8'
_cell_volume   1184.01205334
_cell_formula_units_Z   2
loop_
 _symmetry_equiv_pos_site_id
 _symmetry_equiv_pos_as_xyz
  1  'x, y, z'
loop_
 _atom_site_type_symbol
 _atom_site_label
 _atom_site_symmetry_multiplicity
 _atom_site_fract_x
 _atom_site_fract_y
 _atom_site_fract_z
 _atom_site_occupancy
  Mg  Mg0  1  0.00000000  0.15384600  0.25000000  1
  Mg  Mg1  1  0.00000000  0.69230800  0.32692300  1
  Mg  Mg2  1  0.50000000  0.42307700  0.28846200  1
  Mg  Mg3  1  0.50000000  0.92307700  0.28846200  1
  Mg  Mg4  1  0.00000000  0.23076900  0.40384600  1
  Mg  Mg5  1  0.50000000  0.96153800  0.36538500  1
  Mg  Mg6  1  0.50000000  0.46153800  0.36538500  1
  Mg  Mg7  1  0.00000000  0.76923100  0.48076900  1
  Mg  Mg8  1  0.50000000  0.50000000  0.44230800  1
  Mg  Mg9  1  0.50000000  0.00000000  0.44230800  1
  Mg  Mg10  1  1.00000000  0.30769200  0.55769200  1
  Mg  Mg11  1  0.50000000  0.03846200  0.51923100  1
  Mg  Mg12  1  0.50000000  0.53846200  0.51923100  1
  Mg  Mg13  1  1.00000000  0.84615400  0.63461500  1
  Mg  Mg14  1  0.50000000  0.57692300  0.59615400  1
  Mg  Mg15  1  0.50000000  0.07692300  0.59615400  1
  Mg  Mg16  1  1.00000000  0.38461500  0.71153800  1
  Mg  Mg17  1  0.50000000  0.11538500  0.67307700  1
  Mg  Mg18  1  0.50000000  0.61538500  0.67307700  1
  Mg  Mg19  1  0.00000000  0.92307700  0.78846200  1
  Mg  Mg20  1  0.50000000  0.65384600  0.75000000  1
  Mg  Mg21  1  0.50000000  0.15384600  0.75000000  1
  In  In22  1  1.00000000  0.65384600  0.25000000  1
  In  In23  1  0.00000000  0.19230800  0.32692300  1
  In  In24  1  1.00000000  0.73076900  0.40384600  1
  In  In25  1  0.00000000  0.26923100  0.48076900  1
  In  In26  1  1.00000000  0.80769200  0.55769200  1
  In  In27  1  0.00000000  0.34615400  0.63461500  1
  In  In28  1  1.00000000  0.88461500  0.71153800  1
  In  In29  1  0.00000000  0.42307700  0.78846200  1
