# generated using pymatgen
data_Pm2Mg
_symmetry_space_group_name_H-M   'P 1'
_cell_length_a   3.81728300
_cell_length_b   18.28446347
_cell_length_c   43.05431600
_cell_angle_alpha   95.91282997
_cell_angle_beta   90.00000000
_cell_angle_gamma   90.00000000
_symmetry_Int_Tables_number   1
_chemical_formula_structural   Pm2Mg
_chemical_formula_sum   'Pm40 Mg20'
_cell_volume   2989.07326807
_cell_formula_units_Z   20
loop_
 _symmetry_equiv_pos_site_id
 _symmetry_equiv_pos_as_xyz
  1  'x, y, z'
loop_
 _atom_site_type_symbol
 _atom_site_label
 _atom_site_symmetry_multiplicity
 _atom_site_fract_x
 _atom_site_fract_y
 _atom_site_fract_z
 _atom_site_occupancy
  Pm  Pm0  1  0.00000000  0.98533700  0.26102300  1
  Pm  Pm1  1  0.50000000  0.82617800  0.28376000  1
  Pm  Pm2  1  0.50000000  0.63966300  0.23897700  1
  Pm  Pm3  1  0.00000000  0.79882200  0.21624000  1
  Pm  Pm4  1  0.50000000  0.42283700  0.19852300  1
  Pm  Pm5  1  0.00000000  0.26367800  0.22126000  1
  Pm  Pm6  1  0.00000000  0.20216300  0.30147700  1
  Pm  Pm7  1  0.50000000  0.36132200  0.27874000  1
  Pm  Pm8  1  0.00000000  0.11033700  0.38602300  1
  Pm  Pm9  1  0.50000000  0.95117800  0.40876000  1
  Pm  Pm10  1  0.50000000  0.76466300  0.36397700  1
  Pm  Pm11  1  0.00000000  0.92382200  0.34124000  1
  Pm  Pm12  1  0.50000000  0.54783700  0.32352300  1
  Pm  Pm13  1  0.00000000  0.38867800  0.34626000  1
  Pm  Pm14  1  0.00000000  0.32716300  0.42647700  1
  Pm  Pm15  1  0.50000000  0.48632200  0.40374000  1
  Pm  Pm16  1  1.00000000  0.23533700  0.51102300  1
  Pm  Pm17  1  0.50000000  0.07617800  0.53376000  1
  Pm  Pm18  1  0.50000000  0.88966300  0.48897700  1
  Pm  Pm19  1  0.00000000  0.04882200  0.46624000  1
  Pm  Pm20  1  0.50000000  0.67283700  0.44852300  1
  Pm  Pm21  1  0.00000000  0.51367800  0.47126000  1
  Pm  Pm22  1  0.00000000  0.45216300  0.55147700  1
  Pm  Pm23  1  0.50000000  0.61132200  0.52874000  1
  Pm  Pm24  1  0.00000000  0.36033700  0.63602300  1
  Pm  Pm25  1  0.50000000  0.20117800  0.65876000  1
  Pm  Pm26  1  0.50000000  0.01466300  0.61397700  1
  Pm  Pm27  1  0.00000000  0.17382200  0.59124000  1
  Pm  Pm28  1  0.50000000  0.79783700  0.57352300  1
  Pm  Pm29  1  1.00000000  0.63867800  0.59626000  1
  Pm  Pm30  1  1.00000000  0.57716300  0.67647700  1
  Pm  Pm31  1  0.50000000  0.73632200  0.65374000  1
  Pm  Pm32  1  0.00000000  0.48533700  0.76102300  1
  Pm  Pm33  1  0.50000000  0.32617800  0.78376000  1
  Pm  Pm34  1  0.50000000  0.13966300  0.73897700  1
  Pm  Pm35  1  0.00000000  0.29882200  0.71624000  1
  Pm  Pm36  1  0.50000000  0.92283700  0.69852300  1
  Pm  Pm37  1  0.00000000  0.76367800  0.72126000  1
  Pm  Pm38  1  0.00000000  0.70216300  0.80147700  1
  Pm  Pm39  1  0.50000000  0.86132200  0.77874000  1
  Mg  Mg40  1  0.00000000  0.68554700  0.30385000  1
  Mg  Mg41  1  0.50000000  0.93945300  0.19615000  1
  Mg  Mg42  1  0.50000000  0.12304700  0.24135000  1
  Mg  Mg43  1  0.00000000  0.50195300  0.25865000  1
  Mg  Mg44  1  0.00000000  0.81054700  0.42885000  1
  Mg  Mg45  1  0.50000000  0.06445300  0.32115000  1
  Mg  Mg46  1  0.50000000  0.24804700  0.36635000  1
  Mg  Mg47  1  1.00000000  0.62695300  0.38365000  1
  Mg  Mg48  1  0.00000000  0.93554700  0.55385000  1
  Mg  Mg49  1  0.50000000  0.18945300  0.44615000  1
  Mg  Mg50  1  0.50000000  0.37304700  0.49135000  1
  Mg  Mg51  1  0.00000000  0.75195300  0.50865000  1
  Mg  Mg52  1  0.00000000  0.06054700  0.67885000  1
  Mg  Mg53  1  0.50000000  0.31445300  0.57115000  1
  Mg  Mg54  1  0.50000000  0.49804700  0.61635000  1
  Mg  Mg55  1  0.00000000  0.87695300  0.63365000  1
  Mg  Mg56  1  0.00000000  0.18554700  0.80385000  1
  Mg  Mg57  1  0.50000000  0.43945300  0.69615000  1
  Mg  Mg58  1  0.50000000  0.62304700  0.74135000  1
  Mg  Mg59  1  0.00000000  0.00195300  0.75865000  1
