# generated using pymatgen
data_MgAl
_symmetry_space_group_name_H-M   'P 1'
_cell_length_a   4.43471500
_cell_length_b   4.16461175
_cell_length_c   43.77797400
_cell_angle_alpha   92.72630576
_cell_angle_beta   90.00000000
_cell_angle_gamma   90.00000000
_symmetry_Int_Tables_number   1
_chemical_formula_structural   MgAl
_chemical_formula_sum   'Mg13 Al13'
_cell_volume   807.61440337
_cell_formula_units_Z   13
loop_
 _symmetry_equiv_pos_site_id
 _symmetry_equiv_pos_as_xyz
  1  'x, y, z'
loop_
 _atom_site_type_symbol
 _atom_site_label
 _atom_site_symmetry_multiplicity
 _atom_site_fract_x
 _atom_site_fract_y
 _atom_site_fract_z
 _atom_site_occupancy
  Mg  Mg0  1  0.50000000  0.26190500  0.21428600  1
  Mg  Mg1  1  0.50000000  0.78571400  0.26190500  1
  Mg  Mg2  1  0.50000000  0.30952400  0.30952400  1
  Mg  Mg3  1  0.50000000  0.83333300  0.35714300  1
  Mg  Mg4  1  0.50000000  0.35714300  0.40476200  1
  Mg  Mg5  1  0.50000000  0.88095200  0.45238100  1
  Mg  Mg6  1  0.50000000  0.40476200  0.50000000  1
  Mg  Mg7  1  0.50000000  0.92857100  0.54761900  1
  Mg  Mg8  1  0.50000000  0.45238100  0.59523800  1
  Mg  Mg9  1  0.50000000  0.97619000  0.64285700  1
  Mg  Mg10  1  0.50000000  0.50000000  0.69047600  1
  Mg  Mg11  1  0.50000000  0.02381000  0.73809500  1
  Mg  Mg12  1  0.50000000  0.54761900  0.78571400  1
  Al  Al13  1  0.00000000  0.76190500  0.21428600  1
  Al  Al14  1  0.00000000  0.28571400  0.26190500  1
  Al  Al15  1  0.00000000  0.80952400  0.30952400  1
  Al  Al16  1  0.00000000  0.33333300  0.35714300  1
  Al  Al17  1  0.00000000  0.85714300  0.40476200  1
  Al  Al18  1  0.00000000  0.38095200  0.45238100  1
  Al  Al19  1  0.00000000  0.90476200  0.50000000  1
  Al  Al20  1  0.00000000  0.42857100  0.54761900  1
  Al  Al21  1  0.00000000  0.95238100  0.59523800  1
  Al  Al22  1  0.00000000  0.47619000  0.64285700  1
  Al  Al23  1  0.00000000  0.00000000  0.69047600  1
  Al  Al24  1  0.00000000  0.52381000  0.73809500  1
  Al  Al25  1  0.00000000  0.04761900  0.78571400  1
