# generated using pymatgen
data_Tm2Mg
_symmetry_space_group_name_H-M   'P 1'
_cell_length_a   3.55930500
_cell_length_b   18.06956911
_cell_length_c   41.68439200
_cell_angle_alpha   96.96437607
_cell_angle_beta   90.00000000
_cell_angle_gamma   90.00000000
_symmetry_Int_Tables_number   1
_chemical_formula_structural   Tm2Mg
_chemical_formula_sum   'Tm40 Mg20'
_cell_volume   2661.15549663
_cell_formula_units_Z   20
loop_
 _symmetry_equiv_pos_site_id
 _symmetry_equiv_pos_as_xyz
  1  'x, y, z'
loop_
 _atom_site_type_symbol
 _atom_site_label
 _atom_site_symmetry_multiplicity
 _atom_site_fract_x
 _atom_site_fract_y
 _atom_site_fract_z
 _atom_site_occupancy
  Tm  Tm0  1  0.00000000  0.00704400  0.29363700  1
  Tm  Tm1  1  0.50000000  0.72806100  0.19063400  1
  Tm  Tm2  1  0.50000000  0.68045600  0.26886300  1
  Tm  Tm3  1  0.00000000  0.83443900  0.24686600  1
  Tm  Tm4  1  0.50000000  0.44454400  0.23113700  1
  Tm  Tm5  1  0.00000000  0.29056100  0.25313400  1
  Tm  Tm6  1  0.00000000  0.11795600  0.20636300  1
  Tm  Tm7  1  0.50000000  0.39693900  0.30936600  1
  Tm  Tm8  1  0.00000000  0.13204400  0.41863700  1
  Tm  Tm9  1  0.50000000  0.85306100  0.31563400  1
  Tm  Tm10  1  0.50000000  0.80545600  0.39386300  1
  Tm  Tm11  1  0.00000000  0.95943900  0.37186600  1
  Tm  Tm12  1  0.50000000  0.56954400  0.35613700  1
  Tm  Tm13  1  0.00000000  0.41556100  0.37813400  1
  Tm  Tm14  1  0.00000000  0.24295600  0.33136300  1
  Tm  Tm15  1  0.50000000  0.52193900  0.43436600  1
  Tm  Tm16  1  0.00000000  0.25704400  0.54363700  1
  Tm  Tm17  1  0.50000000  0.97806100  0.44063400  1
  Tm  Tm18  1  0.50000000  0.93045600  0.51886300  1
  Tm  Tm19  1  0.00000000  0.08443900  0.49686600  1
  Tm  Tm20  1  0.50000000  0.69454400  0.48113700  1
  Tm  Tm21  1  0.00000000  0.54056100  0.50313400  1
  Tm  Tm22  1  0.00000000  0.36795600  0.45636300  1
  Tm  Tm23  1  0.50000000  0.64693900  0.55936600  1
  Tm  Tm24  1  0.00000000  0.38204400  0.66863700  1
  Tm  Tm25  1  0.50000000  0.10306100  0.56563400  1
  Tm  Tm26  1  0.50000000  0.05545600  0.64386300  1
  Tm  Tm27  1  0.00000000  0.20943900  0.62186600  1
  Tm  Tm28  1  0.50000000  0.81954400  0.60613700  1
  Tm  Tm29  1  0.00000000  0.66556100  0.62813400  1
  Tm  Tm30  1  0.00000000  0.49295600  0.58136300  1
  Tm  Tm31  1  0.50000000  0.77193900  0.68436600  1
  Tm  Tm32  1  0.00000000  0.50704400  0.79363700  1
  Tm  Tm33  1  0.50000000  0.22806100  0.69063400  1
  Tm  Tm34  1  0.50000000  0.18045600  0.76886300  1
  Tm  Tm35  1  0.00000000  0.33443900  0.74686600  1
  Tm  Tm36  1  0.50000000  0.94454400  0.73113700  1
  Tm  Tm37  1  0.00000000  0.79056100  0.75313400  1
  Tm  Tm38  1  0.00000000  0.61795600  0.70636300  1
  Tm  Tm39  1  0.50000000  0.89693900  0.80936600  1
  Mg  Mg40  1  0.00000000  0.58576300  0.21096200  1
  Mg  Mg41  1  0.50000000  0.97673700  0.22653800  1
  Mg  Mg42  1  0.50000000  0.14826300  0.27346200  1
  Mg  Mg43  1  0.00000000  0.53923700  0.28903800  1
  Mg  Mg44  1  0.00000000  0.71076300  0.33596200  1
  Mg  Mg45  1  0.50000000  0.10173700  0.35153800  1
  Mg  Mg46  1  0.50000000  0.27326300  0.39846200  1
  Mg  Mg47  1  0.00000000  0.66423700  0.41403800  1
  Mg  Mg48  1  0.00000000  0.83576300  0.46096200  1
  Mg  Mg49  1  0.50000000  0.22673700  0.47653800  1
  Mg  Mg50  1  0.50000000  0.39826300  0.52346200  1
  Mg  Mg51  1  0.00000000  0.78923700  0.53903800  1
  Mg  Mg52  1  0.00000000  0.96076300  0.58596200  1
  Mg  Mg53  1  0.50000000  0.35173700  0.60153800  1
  Mg  Mg54  1  0.50000000  0.52326300  0.64846200  1
  Mg  Mg55  1  0.00000000  0.91423700  0.66403800  1
  Mg  Mg56  1  0.00000000  0.08576300  0.71096200  1
  Mg  Mg57  1  0.50000000  0.47673700  0.72653800  1
  Mg  Mg58  1  0.50000000  0.64826300  0.77346200  1
  Mg  Mg59  1  0.00000000  0.03923700  0.78903800  1
