# generated using pymatgen
data_Mg7Se16
_symmetry_space_group_name_H-M   'P 1'
_cell_length_a   6.51982800
_cell_length_b   6.51982800
_cell_length_c   45.63879800
_cell_angle_alpha   90.00000000
_cell_angle_beta   90.00000000
_cell_angle_gamma   90.00000000
_symmetry_Int_Tables_number   1
_chemical_formula_structural   Mg7Se16
_chemical_formula_sum   'Mg14 Se32'
_cell_volume   1940.02119750
_cell_formula_units_Z   2
loop_
 _symmetry_equiv_pos_site_id
 _symmetry_equiv_pos_as_xyz
  1  'x, y, z'
loop_
 _atom_site_type_symbol
 _atom_site_label
 _atom_site_symmetry_multiplicity
 _atom_site_fract_x
 _atom_site_fract_y
 _atom_site_fract_z
 _atom_site_occupancy
  Mg  Mg0  1  0.50000000  0.00000000  0.27381000  1
  Mg  Mg1  1  0.00000000  0.50000000  0.27381000  1
  Mg  Mg2  1  0.50000000  0.50000000  0.34523800  1
  Mg  Mg3  1  0.00000000  0.00000000  0.34523800  1
  Mg  Mg4  1  0.50000000  0.00000000  0.41666700  1
  Mg  Mg5  1  0.00000000  0.50000000  0.41666700  1
  Mg  Mg6  1  0.50000000  0.50000000  0.48809500  1
  Mg  Mg7  1  0.00000000  0.00000000  0.48809500  1
  Mg  Mg8  1  0.50000000  0.00000000  0.55952400  1
  Mg  Mg9  1  0.00000000  0.50000000  0.55952400  1
  Mg  Mg10  1  0.50000000  0.50000000  0.63095200  1
  Mg  Mg11  1  0.00000000  0.00000000  0.63095200  1
  Mg  Mg12  1  0.50000000  0.00000000  0.70238100  1
  Mg  Mg13  1  0.00000000  0.50000000  0.70238100  1
  Se  Se14  1  0.89351100  0.39351100  0.21759400  1
  Se  Se15  1  0.39351100  0.10648900  0.33002500  1
  Se  Se16  1  0.10648900  0.89351100  0.25859700  1
  Se  Se17  1  0.60648900  0.60648900  0.28902200  1
  Se  Se18  1  0.10648900  0.60648900  0.33002500  1
  Se  Se19  1  0.60648900  0.89351100  0.21759400  1
  Se  Se20  1  0.89351100  0.10648900  0.28902200  1
  Se  Se21  1  0.39351100  0.39351100  0.25859700  1
  Se  Se22  1  0.89351100  0.39351100  0.36045100  1
  Se  Se23  1  0.39351100  0.10648900  0.47288300  1
  Se  Se24  1  0.10648900  0.89351100  0.40145400  1
  Se  Se25  1  0.60648900  0.60648900  0.43187900  1
  Se  Se26  1  0.10648900  0.60648900  0.47288300  1
  Se  Se27  1  0.60648900  0.89351100  0.36045100  1
  Se  Se28  1  0.89351100  0.10648900  0.43187900  1
  Se  Se29  1  0.39351100  0.39351100  0.40145400  1
  Se  Se30  1  0.89351100  0.39351100  0.50330800  1
  Se  Se31  1  0.39351100  0.10648900  0.61574000  1
  Se  Se32  1  0.10648900  0.89351100  0.54431100  1
  Se  Se33  1  0.60648900  0.60648900  0.57473700  1
  Se  Se34  1  0.10648900  0.60648900  0.61574000  1
  Se  Se35  1  0.60648900  0.89351100  0.50330800  1
  Se  Se36  1  0.89351100  0.10648900  0.57473700  1
  Se  Se37  1  0.39351100  0.39351100  0.54431100  1
  Se  Se38  1  0.89351100  0.39351100  0.64616500  1
  Se  Se39  1  0.39351100  0.10648900  0.75859700  1
  Se  Se40  1  0.10648900  0.89351100  0.68716800  1
  Se  Se41  1  0.60648900  0.60648900  0.71759400  1
  Se  Se42  1  0.10648900  0.60648900  0.75859700  1
  Se  Se43  1  0.60648900  0.89351100  0.64616500  1
  Se  Se44  1  0.89351100  0.10648900  0.71759400  1
  Se  Se45  1  0.39351100  0.39351100  0.68716800  1
