# generated using pymatgen
data_Mg5Pd9
_symmetry_space_group_name_H-M   'P 1'
_cell_length_a   4.30853900
_cell_length_b   5.51609600
_cell_length_c   53.49805600
_cell_angle_alpha   90.00000000
_cell_angle_beta   90.00000000
_cell_angle_gamma   90.00000000
_symmetry_Int_Tables_number   1
_chemical_formula_structural   Mg5Pd9
_chemical_formula_sum   'Mg15 Pd27'
_cell_volume   1271.45163707
_cell_formula_units_Z   3
loop_
 _symmetry_equiv_pos_site_id
 _symmetry_equiv_pos_as_xyz
  1  'x, y, z'
loop_
 _atom_site_type_symbol
 _atom_site_label
 _atom_site_symmetry_multiplicity
 _atom_site_fract_x
 _atom_site_fract_y
 _atom_site_fract_z
 _atom_site_occupancy
  Mg  Mg0  1  0.00000000  0.00000000  0.26250000  1
  Mg  Mg1  1  0.00000000  0.50000000  0.36250000  1
  Mg  Mg2  1  0.50000000  0.16115000  0.38999300  1
  Mg  Mg3  1  0.50000000  0.83885000  0.33500700  1
  Mg  Mg4  1  0.50000000  0.33885000  0.28999300  1
  Mg  Mg5  1  0.50000000  0.66115000  0.23500700  1
  Mg  Mg6  1  0.00000000  0.00000000  0.46250000  1
  Mg  Mg7  1  0.00000000  0.50000000  0.56250000  1
  Mg  Mg8  1  0.50000000  0.16115000  0.58999300  1
  Mg  Mg9  1  0.50000000  0.83885000  0.53500700  1
  Mg  Mg10  1  0.50000000  0.33885000  0.48999300  1
  Mg  Mg11  1  0.50000000  0.66115000  0.43500700  1
  Mg  Mg12  1  0.00000000  0.00000000  0.66250000  1
  Mg  Mg13  1  0.50000000  0.33885000  0.68999300  1
  Mg  Mg14  1  0.50000000  0.66115000  0.63500700  1
  Pd  Pd15  1  0.50000000  0.17470500  0.24027100  1
  Pd  Pd16  1  0.50000000  0.82529500  0.28472900  1
  Pd  Pd17  1  0.50000000  0.32529500  0.34027100  1
  Pd  Pd18  1  0.50000000  0.67470500  0.38472900  1
  Pd  Pd19  1  0.00000000  0.38856000  0.21126800  1
  Pd  Pd20  1  1.00000000  0.61144000  0.31373200  1
  Pd  Pd21  1  0.00000000  0.11144000  0.31126800  1
  Pd  Pd22  1  0.00000000  0.88856000  0.21373200  1
  Pd  Pd23  1  0.00000000  0.00000000  0.36250000  1
  Pd  Pd24  1  0.00000000  0.50000000  0.26250000  1
  Pd  Pd25  1  0.50000000  0.17470500  0.44027100  1
  Pd  Pd26  1  0.50000000  0.82529500  0.48472900  1
  Pd  Pd27  1  0.50000000  0.32529500  0.54027100  1
  Pd  Pd28  1  0.50000000  0.67470500  0.58472900  1
  Pd  Pd29  1  0.00000000  0.38856000  0.41126800  1
  Pd  Pd30  1  1.00000000  0.61144000  0.51373200  1
  Pd  Pd31  1  0.00000000  0.11144000  0.51126800  1
  Pd  Pd32  1  0.00000000  0.88856000  0.41373200  1
  Pd  Pd33  1  0.00000000  0.00000000  0.56250000  1
  Pd  Pd34  1  0.00000000  0.50000000  0.46250000  1
  Pd  Pd35  1  0.50000000  0.17470500  0.64027100  1
  Pd  Pd36  1  0.50000000  0.82529500  0.68472900  1
  Pd  Pd37  1  0.00000000  0.38856000  0.61126800  1
  Pd  Pd38  1  1.00000000  0.61144000  0.71373200  1
  Pd  Pd39  1  0.00000000  0.11144000  0.71126800  1
  Pd  Pd40  1  0.00000000  0.88856000  0.61373200  1
  Pd  Pd41  1  0.00000000  0.50000000  0.66250000  1
