# generated using pymatgen
data_Mg2Sc
_symmetry_space_group_name_H-M   'P 1'
_cell_length_a   6.13971385
_cell_length_b   16.59344100
_cell_length_c   44.23374800
_cell_angle_alpha   90.00000000
_cell_angle_beta   93.88515193
_cell_angle_gamma   90.00000000
_symmetry_Int_Tables_number   1
_chemical_formula_structural   Mg2Sc
_chemical_formula_sum   'Mg80 Sc40'
_cell_volume   4496.13261685
_cell_formula_units_Z   40
loop_
 _symmetry_equiv_pos_site_id
 _symmetry_equiv_pos_as_xyz
  1  'x, y, z'
loop_
 _atom_site_type_symbol
 _atom_site_label
 _atom_site_symmetry_multiplicity
 _atom_site_fract_x
 _atom_site_fract_y
 _atom_site_fract_z
 _atom_site_occupancy
  Mg  Mg0  1  0.18750000  0.89014400  0.20312500  1
  Mg  Mg1  1  0.06250000  0.72348200  0.23437500  1
  Mg  Mg2  1  0.68750000  0.60985600  0.20312500  1
  Mg  Mg3  1  0.56250000  0.77651800  0.23437500  1
  Mg  Mg4  1  0.06250000  0.39014400  0.23437500  1
  Mg  Mg5  1  0.18750000  0.22348200  0.20312500  1
  Mg  Mg6  1  0.56250000  0.10985600  0.23437500  1
  Mg  Mg7  1  0.68750000  0.27651800  0.20312500  1
  Mg  Mg8  1  0.93750000  0.89014400  0.26562500  1
  Mg  Mg9  1  0.81250000  0.72348200  0.29687500  1
  Mg  Mg10  1  0.43750000  0.60985600  0.26562500  1
  Mg  Mg11  1  0.31250000  0.77651800  0.29687500  1
  Mg  Mg12  1  0.81250000  0.39014400  0.29687500  1
  Mg  Mg13  1  0.93750000  0.22348200  0.26562500  1
  Mg  Mg14  1  0.31250000  0.10985600  0.29687500  1
  Mg  Mg15  1  0.43750000  0.27651800  0.26562500  1
  Mg  Mg16  1  0.68750000  0.89014400  0.32812500  1
  Mg  Mg17  1  0.56250000  0.72348200  0.35937500  1
  Mg  Mg18  1  0.18750000  0.60985600  0.32812500  1
  Mg  Mg19  1  0.06250000  0.77651800  0.35937500  1
  Mg  Mg20  1  0.56250000  0.39014400  0.35937500  1
  Mg  Mg21  1  0.68750000  0.22348200  0.32812500  1
  Mg  Mg22  1  0.06250000  0.10985600  0.35937500  1
  Mg  Mg23  1  0.18750000  0.27651800  0.32812500  1
  Mg  Mg24  1  0.43750000  0.89014400  0.39062500  1
  Mg  Mg25  1  0.31250000  0.72348200  0.42187500  1
  Mg  Mg26  1  0.93750000  0.60985600  0.39062500  1
  Mg  Mg27  1  0.81250000  0.77651800  0.42187500  1
  Mg  Mg28  1  0.31250000  0.39014400  0.42187500  1
  Mg  Mg29  1  0.43750000  0.22348200  0.39062500  1
  Mg  Mg30  1  0.81250000  0.10985600  0.42187500  1
  Mg  Mg31  1  0.93750000  0.27651800  0.39062500  1
  Mg  Mg32  1  0.18750000  0.89014400  0.45312500  1
  Mg  Mg33  1  0.06250000  0.72348200  0.48437500  1
  Mg  Mg34  1  0.68750000  0.60985600  0.45312500  1
  Mg  Mg35  1  0.56250000  0.77651800  0.48437500  1
  Mg  Mg36  1  0.06250000  0.39014400  0.48437500  1
  Mg  Mg37  1  0.18750000  0.22348200  0.45312500  1
  Mg  Mg38  1  0.56250000  0.10985600  0.48437500  1
  Mg  Mg39  1  0.68750000  0.27651800  0.45312500  1
  Mg  Mg40  1  0.93750000  0.89014400  0.51562500  1
  Mg  Mg41  1  0.81250000  0.72348200  0.54687500  1
  Mg  Mg42  1  0.43750000  0.60985600  0.51562500  1
  Mg  Mg43  1  0.31250000  0.77651800  0.54687500  1
  Mg  Mg44  1  0.81250000  0.39014400  0.54687500  1
  Mg  Mg45  1  0.93750000  0.22348200  0.51562500  1
  Mg  Mg46  1  0.31250000  0.10985600  0.54687500  1
  Mg  Mg47  1  0.43750000  0.27651800  0.51562500  1
  Mg  Mg48  1  0.68750000  0.89014400  0.57812500  1
  Mg  Mg49  1  0.56250000  0.72348200  0.60937500  1
  Mg  Mg50  1  0.18750000  0.60985600  0.57812500  1
  Mg  Mg51  1  0.06250000  0.77651800  0.60937500  1
  Mg  Mg52  1  0.56250000  0.39014400  0.60937500  1
  Mg  Mg53  1  0.68750000  0.22348200  0.57812500  1
  Mg  Mg54  1  0.06250000  0.10985600  0.60937500  1
  Mg  Mg55  1  0.18750000  0.27651800  0.57812500  1
  Mg  Mg56  1  0.43750000  0.89014400  0.64062500  1
  Mg  Mg57  1  0.31250000  0.72348200  0.67187500  1
  Mg  Mg58  1  0.93750000  0.60985600  0.64062500  1
  Mg  Mg59  1  0.81250000  0.77651800  0.67187500  1
  Mg  Mg60  1  0.31250000  0.39014400  0.67187500  1
  Mg  Mg61  1  0.43750000  0.22348200  0.64062500  1
  Mg  Mg62  1  0.81250000  0.10985600  0.67187500  1
  Mg  Mg63  1  0.93750000  0.27651800  0.64062500  1
  Mg  Mg64  1  0.18750000  0.89014400  0.70312500  1
  Mg  Mg65  1  0.06250000  0.72348200  0.73437500  1
  Mg  Mg66  1  0.68750000  0.60985600  0.70312500  1
  Mg  Mg67  1  0.56250000  0.77651800  0.73437500  1
  Mg  Mg68  1  0.06250000  0.39014400  0.73437500  1
  Mg  Mg69  1  0.18750000  0.22348200  0.70312500  1
  Mg  Mg70  1  0.56250000  0.10985600  0.73437500  1
  Mg  Mg71  1  0.68750000  0.27651800  0.70312500  1
  Mg  Mg72  1  0.93750000  0.89014400  0.76562500  1
  Mg  Mg73  1  0.81250000  0.72348200  0.79687500  1
  Mg  Mg74  1  0.43750000  0.60985600  0.76562500  1
  Mg  Mg75  1  0.31250000  0.77651800  0.79687500  1
  Mg  Mg76  1  0.81250000  0.39014400  0.79687500  1
  Mg  Mg77  1  0.93750000  0.22348200  0.76562500  1
  Mg  Mg78  1  0.31250000  0.10985600  0.79687500  1
  Mg  Mg79  1  0.43750000  0.27651800  0.76562500  1
  Sc  Sc80  1  0.18750000  0.55667800  0.20312500  1
  Sc  Sc81  1  0.68750000  0.94332200  0.20312500  1
  Sc  Sc82  1  0.06250000  0.05667800  0.23437500  1
  Sc  Sc83  1  0.56250000  0.44332200  0.23437500  1
  Sc  Sc84  1  0.93750000  0.55667800  0.26562500  1
  Sc  Sc85  1  0.43750000  0.94332200  0.26562500  1
  Sc  Sc86  1  0.81250000  0.05667800  0.29687500  1
  Sc  Sc87  1  0.31250000  0.44332200  0.29687500  1
  Sc  Sc88  1  0.68750000  0.55667800  0.32812500  1
  Sc  Sc89  1  0.18750000  0.94332200  0.32812500  1
  Sc  Sc90  1  0.56250000  0.05667800  0.35937500  1
  Sc  Sc91  1  0.06250000  0.44332200  0.35937500  1
  Sc  Sc92  1  0.43750000  0.55667800  0.39062500  1
  Sc  Sc93  1  0.93750000  0.94332200  0.39062500  1
  Sc  Sc94  1  0.31250000  0.05667800  0.42187500  1
  Sc  Sc95  1  0.81250000  0.44332200  0.42187500  1
  Sc  Sc96  1  0.18750000  0.55667800  0.45312500  1
  Sc  Sc97  1  0.68750000  0.94332200  0.45312500  1
  Sc  Sc98  1  0.06250000  0.05667800  0.48437500  1
  Sc  Sc99  1  0.56250000  0.44332200  0.48437500  1
  Sc  Sc100  1  0.93750000  0.55667800  0.51562500  1
  Sc  Sc101  1  0.43750000  0.94332200  0.51562500  1
  Sc  Sc102  1  0.81250000  0.05667800  0.54687500  1
  Sc  Sc103  1  0.31250000  0.44332200  0.54687500  1
  Sc  Sc104  1  0.68750000  0.55667800  0.57812500  1
  Sc  Sc105  1  0.18750000  0.94332200  0.57812500  1
  Sc  Sc106  1  0.56250000  0.05667800  0.60937500  1
  Sc  Sc107  1  0.06250000  0.44332200  0.60937500  1
  Sc  Sc108  1  0.43750000  0.55667800  0.64062500  1
  Sc  Sc109  1  0.93750000  0.94332200  0.64062500  1
  Sc  Sc110  1  0.31250000  0.05667800  0.67187500  1
  Sc  Sc111  1  0.81250000  0.44332200  0.67187500  1
  Sc  Sc112  1  0.18750000  0.55667800  0.70312500  1
  Sc  Sc113  1  0.68750000  0.94332200  0.70312500  1
  Sc  Sc114  1  0.06250000  0.05667800  0.73437500  1
  Sc  Sc115  1  0.56250000  0.44332200  0.73437500  1
  Sc  Sc116  1  0.93750000  0.55667800  0.76562500  1
  Sc  Sc117  1  0.43750000  0.94332200  0.76562500  1
  Sc  Sc118  1  0.81250000  0.05667800  0.79687500  1
  Sc  Sc119  1  0.31250000  0.44332200  0.79687500  1
