# generated using pymatgen
data_Mg35As23
_symmetry_space_group_name_H-M   'P 1'
_cell_length_a   10.80375129
_cell_length_b   10.80375121
_cell_length_c   44.54500800
_cell_angle_alpha   94.63715255
_cell_angle_beta   94.63715251
_cell_angle_gamma   109.47122095
_symmetry_Int_Tables_number   1
_chemical_formula_structural   Mg35As23
_chemical_formula_sum   'Mg70 As46'
_cell_volume   4853.68783490
_cell_formula_units_Z   2
loop_
 _symmetry_equiv_pos_site_id
 _symmetry_equiv_pos_as_xyz
  1  'x, y, z'
loop_
 _atom_site_type_symbol
 _atom_site_label
 _atom_site_symmetry_multiplicity
 _atom_site_fract_x
 _atom_site_fract_y
 _atom_site_fract_z
 _atom_site_occupancy
  Mg  Mg0  1  0.12048600  0.43277900  0.34301300  1
  Mg  Mg1  1  0.04726800  0.13117100  0.38869100  1
  Mg  Mg2  1  0.86092900  0.68631100  0.33698700  1
  Mg  Mg3  1  0.60608800  0.89424700  0.24181400  1
  Mg  Mg4  1  0.65689200  0.95159500  0.33687700  1
  Mg  Mg5  1  0.38588000  0.22885200  0.34312300  1
  Mg  Mg6  1  0.73892300  0.29869200  0.29613600  1
  Mg  Mg7  1  0.96938300  0.05383400  0.29482700  1
  Mg  Mg8  1  0.77371900  0.35162500  0.38386400  1
  Mg  Mg9  1  0.53017000  0.58339400  0.38517300  1
  Mg  Mg10  1  0.82359500  0.67311100  0.23818600  1
  Mg  Mg11  1  0.51364200  0.56741400  0.29130900  1
  Mg  Mg12  1  0.85067600  0.17605800  0.23698700  1
  Mg  Mg13  1  0.52389400  0.07766700  0.39130900  1
  Mg  Mg14  1  0.11023400  0.92252700  0.24301300  1
  Mg  Mg15  1  0.36507500  0.71459100  0.33818600  1
  Mg  Mg16  1  0.45752100  0.04142300  0.28869100  1
  Mg  Mg17  1  0.14756700  0.93572600  0.34181400  1
  Mg  Mg18  1  0.44099300  0.02544400  0.19482700  1
  Mg  Mg19  1  0.19744400  0.25721200  0.19613600  1
  Mg  Mg20  1  0.00177900  0.55500300  0.28517300  1
  Mg  Mg21  1  0.23223900  0.31014600  0.28386400  1
  Mg  Mg22  1  0.58528200  0.37998600  0.23687700  1
  Mg  Mg23  1  0.31427100  0.65724200  0.24312300  1
  Mg  Mg24  1  0.72048600  0.03277900  0.54301300  1
  Mg  Mg25  1  0.64726800  0.73117100  0.58869100  1
  Mg  Mg26  1  0.46092900  0.28631100  0.53698700  1
  Mg  Mg27  1  0.20608800  0.49424700  0.44181400  1
  Mg  Mg28  1  0.25689200  0.55159500  0.53687700  1
  Mg  Mg29  1  0.98588000  0.82885200  0.54312300  1
  Mg  Mg30  1  0.33892300  0.89869200  0.49613600  1
  Mg  Mg31  1  0.56938300  0.65383400  0.49482700  1
  Mg  Mg32  1  0.37371900  0.95162500  0.58386400  1
  Mg  Mg33  1  0.13017000  0.18339400  0.58517300  1
  Mg  Mg34  1  0.42359500  0.27311100  0.43818600  1
  Mg  Mg35  1  0.11364200  0.16741400  0.49130900  1
  Mg  Mg36  1  0.45067600  0.77605800  0.43698700  1
  Mg  Mg37  1  0.12389400  0.67766700  0.59130900  1
  Mg  Mg38  1  0.71023400  0.52252700  0.44301300  1
  Mg  Mg39  1  0.96507500  0.31459100  0.53818600  1
  Mg  Mg40  1  0.05752100  0.64142300  0.48869100  1
  Mg  Mg41  1  0.74756700  0.53572600  0.54181400  1
  Mg  Mg42  1  0.04099300  0.62544400  0.39482700  1
  Mg  Mg43  1  0.79744400  0.85721200  0.39613600  1
  Mg  Mg44  1  0.60177900  0.15500300  0.48517300  1
  Mg  Mg45  1  0.83223900  0.91014600  0.48386400  1
  Mg  Mg46  1  0.18528200  0.97998600  0.43687700  1
  Mg  Mg47  1  0.91427100  0.25724200  0.44312300  1
  Mg  Mg48  1  0.32048600  0.63277900  0.74301300  1
  Mg  Mg49  1  0.06092900  0.88631100  0.73698700  1
  Mg  Mg50  1  0.80608800  0.09424700  0.64181400  1
  Mg  Mg51  1  0.85689200  0.15159500  0.73687700  1
  Mg  Mg52  1  0.58588000  0.42885200  0.74312300  1
  Mg  Mg53  1  0.93892300  0.49869200  0.69613600  1
  Mg  Mg54  1  0.16938300  0.25383400  0.69482700  1
  Mg  Mg55  1  0.97371900  0.55162500  0.78386400  1
  Mg  Mg56  1  0.73017000  0.78339400  0.78517300  1
  Mg  Mg57  1  0.02359500  0.87311100  0.63818600  1
  Mg  Mg58  1  0.71364200  0.76741400  0.69130900  1
  Mg  Mg59  1  0.05067600  0.37605800  0.63698700  1
  Mg  Mg60  1  0.31023400  0.12252700  0.64301300  1
  Mg  Mg61  1  0.56507500  0.91459100  0.73818600  1
  Mg  Mg62  1  0.65752100  0.24142300  0.68869100  1
  Mg  Mg63  1  0.34756700  0.13572600  0.74181400  1
  Mg  Mg64  1  0.64099300  0.22544400  0.59482700  1
  Mg  Mg65  1  0.39744400  0.45721200  0.59613600  1
  Mg  Mg66  1  0.20177900  0.75500300  0.68517300  1
  Mg  Mg67  1  0.43223900  0.51014600  0.68386400  1
  Mg  Mg68  1  0.78528200  0.57998600  0.63687700  1
  Mg  Mg69  1  0.51427100  0.85724200  0.64312300  1
  As  As70  1  0.59883800  0.14558100  0.24441900  1
  As  As71  1  0.11348700  0.68232500  0.34000000  1
  As  As72  1  0.22674400  0.06767500  0.29441900  1
  As  As73  1  0.35767500  0.42651300  0.24000000  1
  As  As74  1  0.54441900  0.84116200  0.38558100  1
  As  As75  1  0.07232500  0.66325600  0.23558100  1
  As  As76  1  0.37232500  0.46325600  0.33558100  1
  As  As77  1  0.85767500  0.92651300  0.24000000  1
  As  As78  1  0.74441900  0.54116200  0.28558100  1
  As  As79  1  0.61348700  0.18232500  0.34000000  1
  As  As80  1  0.42674400  0.76767500  0.19441900  1
  As  As81  1  0.89883800  0.94558100  0.34441900  1
  As  As82  1  0.98558100  0.30441900  0.29000000  1
  As  As83  1  0.78558100  0.60441900  0.39000000  1
  As  As84  1  0.28558100  0.10441900  0.39000000  1
  As  As85  1  0.48558100  0.80441900  0.29000000  1
  As  As86  1  0.19883800  0.74558100  0.44441900  1
  As  As87  1  0.71348700  0.28232500  0.54000000  1
  As  As88  1  0.82674400  0.66767500  0.49441900  1
  As  As89  1  0.95767500  0.02651300  0.44000000  1
  As  As90  1  0.14441900  0.44116200  0.58558100  1
  As  As91  1  0.67232500  0.26325600  0.43558100  1
  As  As92  1  0.97232500  0.06325600  0.53558100  1
  As  As93  1  0.45767500  0.52651300  0.44000000  1
  As  As94  1  0.34441900  0.14116200  0.48558100  1
  As  As95  1  0.21348700  0.78232500  0.54000000  1
  As  As96  1  0.02674400  0.36767500  0.39441900  1
  As  As97  1  0.49883800  0.54558100  0.54441900  1
  As  As98  1  0.58558100  0.90441900  0.49000000  1
  As  As99  1  0.38558100  0.20441900  0.59000000  1
  As  As100  1  0.88558100  0.70441900  0.59000000  1
  As  As101  1  0.08558100  0.40441900  0.49000000  1
  As  As102  1  0.79883800  0.34558100  0.64441900  1
  As  As103  1  0.31348700  0.88232500  0.74000000  1
  As  As104  1  0.42674400  0.26767500  0.69441900  1
  As  As105  1  0.55767500  0.62651300  0.64000000  1
  As  As106  1  0.74441900  0.04116200  0.78558100  1
  As  As107  1  0.27232500  0.86325600  0.63558100  1
  As  As108  1  0.57232500  0.66325600  0.73558100  1
  As  As109  1  0.05767500  0.12651300  0.64000000  1
  As  As110  1  0.94441900  0.74116200  0.68558100  1
  As  As111  1  0.81348700  0.38232500  0.74000000  1
  As  As112  1  0.62674400  0.96767500  0.59441900  1
  As  As113  1  0.09883800  0.14558100  0.74441900  1
  As  As114  1  0.18558100  0.50441900  0.69000000  1
  As  As115  1  0.68558100  0.00441900  0.69000000  1
