# generated using pymatgen
data_Pr2Mg
_symmetry_space_group_name_H-M   'P 1'
_cell_length_a   6.91212396
_cell_length_b   8.96230632
_cell_length_c   41.02294500
_cell_angle_alpha   87.97771942
_cell_angle_beta   89.18576045
_cell_angle_gamma   83.06188699
_symmetry_Int_Tables_number   1
_chemical_formula_structural   Pr2Mg
_chemical_formula_sum   'Pr32 Mg16'
_cell_volume   2521.00542010
_cell_formula_units_Z   16
loop_
 _symmetry_equiv_pos_site_id
 _symmetry_equiv_pos_as_xyz
  1  'x, y, z'
loop_
 _atom_site_type_symbol
 _atom_site_label
 _atom_site_symmetry_multiplicity
 _atom_site_fract_x
 _atom_site_fract_y
 _atom_site_fract_z
 _atom_site_occupancy
  Pr  Pr0  1  0.95429000  0.41549700  0.75662000  1
  Pr  Pr1  1  0.05278200  0.79991700  0.73199700  1
  Pr  Pr2  1  0.35340300  0.04604200  0.78184200  1
  Pr  Pr3  1  0.25491000  0.66162100  0.80646500  1
  Pr  Pr4  1  0.26198200  0.49242000  0.67969700  1
  Pr  Pr5  1  0.36047500  0.87684000  0.65507400  1
  Pr  Pr6  1  0.66109500  0.12296500  0.70491900  1
  Pr  Pr7  1  0.56260200  0.73854400  0.72954200  1
  Pr  Pr8  1  0.56967400  0.56934300  0.60277400  1
  Pr  Pr9  1  0.66816700  0.95376400  0.57815100  1
  Pr  Pr10  1  0.96878700  0.19988800  0.62799600  1
  Pr  Pr11  1  0.87029400  0.81546700  0.65261900  1
  Pr  Pr12  1  0.87736700  0.64626600  0.52585100  1
  Pr  Pr13  1  0.97585900  0.03068700  0.50122700  1
  Pr  Pr14  1  0.27647900  0.27681100  0.55107200  1
  Pr  Pr15  1  0.17798700  0.89239000  0.57569600  1
  Pr  Pr16  1  0.18505900  0.72318900  0.44892800  1
  Pr  Pr17  1  0.28355200  0.10761000  0.42430400  1
  Pr  Pr18  1  0.58417200  0.35373400  0.47414900  1
  Pr  Pr19  1  0.48567900  0.96931300  0.49877300  1
  Pr  Pr20  1  0.49275100  0.80011200  0.37200400  1
  Pr  Pr21  1  0.59124400  0.18453300  0.34738100  1
  Pr  Pr22  1  0.89186400  0.43065700  0.39722600  1
  Pr  Pr23  1  0.79337100  0.04623600  0.42184900  1
  Pr  Pr24  1  0.80044400  0.87703500  0.29508100  1
  Pr  Pr25  1  0.89893600  0.26145600  0.27045800  1
  Pr  Pr26  1  0.19955600  0.50758000  0.32030300  1
  Pr  Pr27  1  0.10106400  0.12316000  0.34492600  1
  Pr  Pr28  1  0.10813600  0.95395800  0.21815800  1
  Pr  Pr29  1  0.20662900  0.33837900  0.19353500  1
  Pr  Pr30  1  0.50724900  0.58450300  0.24338000  1
  Pr  Pr31  1  0.40875600  0.20008300  0.26800300  1
  Mg  Mg32  1  0.84902800  0.07338400  0.78293500  1
  Mg  Mg33  1  0.45866500  0.38815400  0.75552600  1
  Mg  Mg34  1  0.15672000  0.15030700  0.70601200  1
  Mg  Mg35  1  0.76635700  0.46507700  0.67860300  1
  Mg  Mg36  1  0.46441200  0.22723000  0.62908900  1
  Mg  Mg37  1  0.07404900  0.54200000  0.60168000  1
  Mg  Mg38  1  0.77210500  0.30415300  0.55216600  1
  Mg  Mg39  1  0.38174100  0.61892300  0.52475700  1
  Mg  Mg40  1  0.07979700  0.38107700  0.47524300  1
  Mg  Mg41  1  0.68943400  0.69584700  0.44783400  1
  Mg  Mg42  1  0.38748900  0.45800000  0.39832000  1
  Mg  Mg43  1  0.99712600  0.77277000  0.37091100  1
  Mg  Mg44  1  0.69518200  0.53492300  0.32139700  1
  Mg  Mg45  1  0.30481800  0.84969300  0.29398800  1
  Mg  Mg46  1  0.00287400  0.61184600  0.24447400  1
  Mg  Mg47  1  0.61251100  0.92661600  0.21706500  1
