# generated using pymatgen
data_Mg29Hg14
_symmetry_space_group_name_H-M   'P 1'
_cell_length_a   7.97718666
_cell_length_b   9.83847239
_cell_length_c   45.39858300
_cell_angle_alpha   91.26955969
_cell_angle_beta   89.07673454
_cell_angle_gamma   73.25679879
_symmetry_Int_Tables_number   1
_chemical_formula_structural   Mg29Hg14
_chemical_formula_sum   'Mg58 Hg28'
_cell_volume   3410.19980381
_cell_formula_units_Z   2
loop_
 _symmetry_equiv_pos_site_id
 _symmetry_equiv_pos_as_xyz
  1  'x, y, z'
loop_
 _atom_site_type_symbol
 _atom_site_label
 _atom_site_symmetry_multiplicity
 _atom_site_fract_x
 _atom_site_fract_y
 _atom_site_fract_z
 _atom_site_occupancy
  Mg  Mg0  1  0.88560800  0.91603500  0.26201100  1
  Mg  Mg1  1  0.52413700  0.78883700  0.26363000  1
  Mg  Mg2  1  0.88646700  0.92099300  0.33427100  1
  Mg  Mg3  1  0.21558500  0.63003300  0.26829300  1
  Mg  Mg4  1  0.51659400  0.06314300  0.30173900  1
  Mg  Mg5  1  0.58545800  0.48788400  0.30082500  1
  Mg  Mg6  1  0.11605700  0.15730000  0.32939900  1
  Mg  Mg7  1  0.98599500  0.39372700  0.27316500  1
  Mg  Mg8  1  0.57791500  0.76218900  0.33893400  1
  Mg  Mg9  1  0.21644500  0.63499100  0.34055300  1
  Mg  Mg10  1  0.57877500  0.76714700  0.41119400  1
  Mg  Mg11  1  0.90789300  0.47618700  0.34521600  1
  Mg  Mg12  1  0.20890200  0.90929600  0.37866200  1
  Mg  Mg13  1  0.27776600  0.33403700  0.37774800  1
  Mg  Mg14  1  0.80836400  0.00345300  0.40632200  1
  Mg  Mg15  1  0.67830300  0.23988000  0.35008800  1
  Mg  Mg16  1  0.27022300  0.60834300  0.41585700  1
  Mg  Mg17  1  0.90875200  0.48114500  0.41747600  1
  Mg  Mg18  1  0.27108200  0.61330000  0.48811700  1
  Mg  Mg19  1  0.60020100  0.32234100  0.42214000  1
  Mg  Mg20  1  0.90121000  0.75545000  0.45558500  1
  Mg  Mg21  1  0.97007300  0.18019100  0.45467100  1
  Mg  Mg22  1  0.50067200  0.84960700  0.48324500  1
  Mg  Mg23  1  0.37061100  0.08603400  0.42701100  1
  Mg  Mg24  1  0.96253100  0.45449600  0.49278000  1
  Mg  Mg25  1  0.60106000  0.32729900  0.49439900  1
  Mg  Mg26  1  0.96339000  0.45945400  0.56504000  1
  Mg  Mg27  1  0.29250800  0.16849500  0.49906300  1
  Mg  Mg28  1  0.59351700  0.60160400  0.53250800  1
  Mg  Mg29  1  0.66238100  0.02634500  0.53159400  1
  Mg  Mg30  1  0.19298000  0.69576100  0.56016800  1
  Mg  Mg31  1  0.06291900  0.93218800  0.50393500  1
  Mg  Mg32  1  0.65483800  0.30065000  0.56970300  1
  Mg  Mg33  1  0.29336800  0.17345300  0.57132200  1
  Mg  Mg34  1  0.65569800  0.30560800  0.64196300  1
  Mg  Mg35  1  0.98481600  0.01464900  0.57598600  1
  Mg  Mg36  1  0.28582500  0.44775800  0.60943100  1
  Mg  Mg37  1  0.35468900  0.87249900  0.60851800  1
  Mg  Mg38  1  0.88528800  0.54191500  0.63709100  1
  Mg  Mg39  1  0.75522600  0.77834200  0.58085800  1
  Mg  Mg40  1  0.34714600  0.14680400  0.64662600  1
  Mg  Mg41  1  0.98567500  0.01960700  0.64824500  1
  Mg  Mg42  1  0.34800600  0.15176200  0.71888600  1
  Mg  Mg43  1  0.67712400  0.86080300  0.65290900  1
  Mg  Mg44  1  0.97813300  0.29391200  0.68635400  1
  Mg  Mg45  1  0.04699600  0.71865300  0.68544100  1
  Mg  Mg46  1  0.57759500  0.38806900  0.71401400  1
  Mg  Mg47  1  0.44753400  0.62449600  0.65778100  1
  Mg  Mg48  1  0.03945400  0.99295800  0.72355000  1
  Mg  Mg49  1  0.67798300  0.86576000  0.72516800  1
  Mg  Mg50  1  0.04031300  0.99791600  0.79580900  1
  Mg  Mg51  1  0.36943100  0.70695700  0.72983200  1
  Mg  Mg52  1  0.67044100  0.14006600  0.76327700  1
  Mg  Mg53  1  0.73930400  0.56480700  0.76236400  1
  Mg  Mg54  1  0.26990300  0.23422300  0.79093700  1
  Mg  Mg55  1  0.13984200  0.47065000  0.73470400  1
  Mg  Mg56  1  0.73176100  0.83911200  0.80047300  1
  Mg  Mg57  1  0.37029100  0.71191400  0.80209100  1
  Hg  Hg58  1  0.85498700  0.67916200  0.29522600  1
  Hg  Hg59  1  0.24706500  0.87186400  0.30733800  1
  Hg  Hg60  1  0.28824100  0.36271400  0.31191300  1
  Hg  Hg61  1  0.81381100  0.18831300  0.29065100  1
  Hg  Hg62  1  0.54729500  0.52531600  0.37214900  1
  Hg  Hg63  1  0.93937300  0.71801700  0.38426100  1
  Hg  Hg64  1  0.98054900  0.20886700  0.38883600  1
  Hg  Hg65  1  0.50611900  0.03446600  0.36757400  1
  Hg  Hg66  1  0.23960200  0.37147000  0.44907300  1
  Hg  Hg67  1  0.63168100  0.56417100  0.46118400  1
  Hg  Hg68  1  0.67285600  0.05502100  0.46575900  1
  Hg  Hg69  1  0.19842700  0.88062000  0.44449700  1
  Hg  Hg70  1  0.93191000  0.21762400  0.52599600  1
  Hg  Hg71  1  0.32398900  0.41032500  0.53810700  1
  Hg  Hg72  1  0.36516400  0.90117500  0.54268200  1
  Hg  Hg73  1  0.89073400  0.72677400  0.52142100  1
  Hg  Hg74  1  0.62421800  0.06377800  0.60291900  1
  Hg  Hg75  1  0.01629600  0.25647900  0.61503000  1
  Hg  Hg76  1  0.05747200  0.74732900  0.61960500  1
  Hg  Hg77  1  0.58304200  0.57292800  0.59834400  1
  Hg  Hg78  1  0.31652500  0.90993200  0.67984200  1
  Hg  Hg79  1  0.70860400  0.10263300  0.69195300  1
  Hg  Hg80  1  0.74977900  0.59348300  0.69652800  1
  Hg  Hg81  1  0.27535000  0.41908200  0.67526700  1
  Hg  Hg82  1  0.00883300  0.75608600  0.75676500  1
  Hg  Hg83  1  0.40091200  0.94878700  0.76887600  1
  Hg  Hg84  1  0.44208700  0.43963700  0.77345100  1
  Hg  Hg85  1  0.96765700  0.26523600  0.75219000  1
