# generated using pymatgen
data_Ho7Mg4
_symmetry_space_group_name_H-M   'P 1'
_cell_length_a   3.67361200
_cell_length_b   5.45155000
_cell_length_c   51.20988400
_cell_angle_alpha   90.00000000
_cell_angle_beta   90.00000000
_cell_angle_gamma   90.00000000
_symmetry_Int_Tables_number   1
_chemical_formula_structural   Ho7Mg4
_chemical_formula_sum   'Ho14 Mg8'
_cell_volume   1025.57417601
_cell_formula_units_Z   2
loop_
 _symmetry_equiv_pos_site_id
 _symmetry_equiv_pos_as_xyz
  1  'x, y, z'
loop_
 _atom_site_type_symbol
 _atom_site_label
 _atom_site_symmetry_multiplicity
 _atom_site_fract_x
 _atom_site_fract_y
 _atom_site_fract_z
 _atom_site_occupancy
  Ho  Ho0  1  0.00000000  0.75000000  0.47543700  1
  Ho  Ho1  1  0.50000000  0.25000000  0.24678500  1
  Ho  Ho2  1  0.50000000  0.75000000  0.30877000  1
  Ho  Ho3  1  1.00000000  0.75000000  0.36866800  1
  Ho  Ho4  1  0.00000000  0.25000000  0.41345200  1
  Ho  Ho5  1  0.50000000  0.25000000  0.35355500  1
  Ho  Ho6  1  0.00000000  0.75000000  0.80877000  1
  Ho  Ho7  1  0.50000000  0.75000000  0.53533400  1
  Ho  Ho8  1  0.50000000  0.25000000  0.58011800  1
  Ho  Ho9  1  0.00000000  0.25000000  0.52022100  1
  Ho  Ho10  1  0.50000000  0.75000000  0.64210400  1
  Ho  Ho11  1  0.00000000  0.75000000  0.70200100  1
  Ho  Ho12  1  0.00000000  0.25000000  0.74678500  1
  Ho  Ho13  1  0.50000000  0.25000000  0.68688800  1
  Mg  Mg14  1  0.00000000  0.75000000  0.25571700  1
  Mg  Mg15  1  0.50000000  0.25000000  0.46650500  1
  Mg  Mg16  1  0.50000000  0.75000000  0.42238400  1
  Mg  Mg17  1  0.00000000  0.25000000  0.29983800  1
  Mg  Mg18  1  0.00000000  0.75000000  0.58905100  1
  Mg  Mg19  1  0.50000000  0.25000000  0.79983800  1
  Mg  Mg20  1  0.50000000  0.75000000  0.75571700  1
  Mg  Mg21  1  0.00000000  0.25000000  0.63317200  1
