# generated using pymatgen
data_Mg17Hg8
_symmetry_space_group_name_H-M   'P 1'
_cell_length_a   4.75496500
_cell_length_b   10.73367025
_cell_length_c   41.14994800
_cell_angle_alpha   87.73861022
_cell_angle_beta   90.00000000
_cell_angle_gamma   90.00000000
_symmetry_Int_Tables_number   1
_chemical_formula_structural   Mg17Hg8
_chemical_formula_sum   'Mg34 Hg16'
_cell_volume   2098.58473503
_cell_formula_units_Z   2
loop_
 _symmetry_equiv_pos_site_id
 _symmetry_equiv_pos_as_xyz
  1  'x, y, z'
loop_
 _atom_site_type_symbol
 _atom_site_label
 _atom_site_symmetry_multiplicity
 _atom_site_fract_x
 _atom_site_fract_y
 _atom_site_fract_z
 _atom_site_occupancy
  Mg  Mg0  1  0.25000000  0.28407300  0.28764400  1
  Mg  Mg1  1  0.75000000  0.07347500  0.31652300  1
  Mg  Mg2  1  0.75000000  0.34688700  0.34222700  1
  Mg  Mg3  1  0.25000000  0.63566100  0.38694000  1
  Mg  Mg4  1  0.75000000  0.11120800  0.39509100  1
  Mg  Mg5  1  0.25000000  0.87134000  0.33407600  1
  Mg  Mg6  1  0.25000000  0.90907300  0.41264400  1
  Mg  Mg7  1  0.75000000  0.69847500  0.44152300  1
  Mg  Mg8  1  0.25000000  0.33159800  0.39714900  1
  Mg  Mg9  1  0.75000000  0.65095000  0.33201800  1
  Mg  Mg10  1  0.75000000  0.97188700  0.46722700  1
  Mg  Mg11  1  0.25000000  0.26066100  0.51194000  1
  Mg  Mg12  1  0.75000000  0.73620800  0.52009100  1
  Mg  Mg13  1  0.25000000  0.49634000  0.45907600  1
  Mg  Mg14  1  0.25000000  0.53407300  0.53764400  1
  Mg  Mg15  1  0.75000000  0.32347500  0.56652300  1
  Mg  Mg16  1  0.25000000  0.95659800  0.52214900  1
  Mg  Mg17  1  0.75000000  0.27595000  0.45701800  1
  Mg  Mg18  1  0.75000000  0.59688700  0.59222700  1
  Mg  Mg19  1  0.25000000  0.88566100  0.63694000  1
  Mg  Mg20  1  0.75000000  0.36120800  0.64509100  1
  Mg  Mg21  1  0.25000000  0.12134000  0.58407600  1
  Mg  Mg22  1  0.25000000  0.15907300  0.66264400  1
  Mg  Mg23  1  0.75000000  0.94847500  0.69152300  1
  Mg  Mg24  1  0.25000000  0.58159800  0.64714900  1
  Mg  Mg25  1  0.75000000  0.90095000  0.58201800  1
  Mg  Mg26  1  0.75000000  0.22188700  0.71722700  1
  Mg  Mg27  1  0.25000000  0.51066100  0.76194000  1
  Mg  Mg28  1  0.75000000  0.98620800  0.77009100  1
  Mg  Mg29  1  0.25000000  0.74634000  0.70907600  1
  Mg  Mg30  1  0.25000000  0.78407300  0.78764400  1
  Mg  Mg31  1  0.75000000  0.57347500  0.81652300  1
  Mg  Mg32  1  0.25000000  0.20659800  0.77214900  1
  Mg  Mg33  1  0.75000000  0.52595000  0.70701800  1
  Hg  Hg34  1  0.75000000  0.47646400  0.40567400  1
  Hg  Hg35  1  0.25000000  0.50608300  0.32349300  1
  Hg  Hg36  1  0.75000000  0.84088700  0.37855800  1
  Hg  Hg37  1  0.25000000  0.14166100  0.35060800  1
  Hg  Hg38  1  0.75000000  0.10146400  0.53067400  1
  Hg  Hg39  1  0.25000000  0.13108300  0.44849300  1
  Hg  Hg40  1  0.75000000  0.46588700  0.50355800  1
  Hg  Hg41  1  0.25000000  0.76666100  0.47560800  1
  Hg  Hg42  1  0.75000000  0.72646400  0.65567400  1
  Hg  Hg43  1  0.25000000  0.75608300  0.57349300  1
  Hg  Hg44  1  0.75000000  0.09088700  0.62855800  1
  Hg  Hg45  1  0.25000000  0.39166100  0.60060800  1
  Hg  Hg46  1  0.75000000  0.35146400  0.78067400  1
  Hg  Hg47  1  0.25000000  0.38108300  0.69849300  1
  Hg  Hg48  1  0.75000000  0.71588700  0.75355800  1
  Hg  Hg49  1  0.25000000  0.01666100  0.72560800  1
