# generated using pymatgen
data_Mg7P32
_symmetry_space_group_name_H-M   'P 1'
_cell_length_a   5.19237572
_cell_length_b   5.12288200
_cell_length_c   45.09202800
_cell_angle_alpha   90.00000000
_cell_angle_beta   92.06614662
_cell_angle_gamma   90.00000000
_symmetry_Int_Tables_number   1
_chemical_formula_structural   Mg7P32
_chemical_formula_sum   'Mg7 P32'
_cell_volume   1198.66490812
_cell_formula_units_Z   1
loop_
 _symmetry_equiv_pos_site_id
 _symmetry_equiv_pos_as_xyz
  1  'x, y, z'
loop_
 _atom_site_type_symbol
 _atom_site_label
 _atom_site_symmetry_multiplicity
 _atom_site_fract_x
 _atom_site_fract_y
 _atom_site_fract_z
 _atom_site_occupancy
  Mg  Mg0  1  0.84162800  0.00000000  0.32500000  1
  Mg  Mg1  1  0.92496200  0.50000000  0.24166700  1
  Mg  Mg2  1  0.67496200  0.00000000  0.49166700  1
  Mg  Mg3  1  0.75829500  0.50000000  0.40833300  1
  Mg  Mg4  1  0.50829500  0.00000000  0.65833300  1
  Mg  Mg5  1  0.59162800  0.50000000  0.57500000  1
  Mg  Mg6  1  0.42496200  0.50000000  0.74166700  1
  P  P7  1  0.21896900  0.29223200  0.20061300  1
  P  P8  1  0.71428700  0.79223200  0.19938700  1
  P  P9  1  0.63095400  0.70776800  0.28272000  1
  P  P10  1  0.13563600  0.20776800  0.28394600  1
  P  P11  1  0.30526000  0.89159400  0.25825700  1
  P  P12  1  0.46133000  0.39159400  0.30841000  1
  P  P13  1  0.54466300  0.10840600  0.22507700  1
  P  P14  1  0.38859400  0.60840600  0.17492300  1
  P  P15  1  0.05230200  0.29223200  0.36728000  1
  P  P16  1  0.54762100  0.79223200  0.36605400  1
  P  P17  1  0.46428700  0.70776800  0.44938700  1
  P  P18  1  0.96896900  0.20776800  0.45061300  1
  P  P19  1  0.13859400  0.89159400  0.42492300  1
  P  P20  1  0.29466300  0.39159400  0.47507700  1
  P  P21  1  0.37799600  0.10840600  0.39174300  1
  P  P22  1  0.22192700  0.60840600  0.34159000  1
  P  P23  1  0.88563600  0.29223200  0.53394600  1
  P  P24  1  0.38095400  0.79223200  0.53272000  1
  P  P25  1  0.29762100  0.70776800  0.61605400  1
  P  P26  1  0.80230200  0.20776800  0.61728000  1
  P  P27  1  0.97192700  0.89159400  0.59159000  1
  P  P28  1  0.12799600  0.39159400  0.64174300  1
  P  P29  1  0.21133000  0.10840600  0.55841000  1
  P  P30  1  0.05526000  0.60840600  0.50825700  1
  P  P31  1  0.71896900  0.29223200  0.70061300  1
  P  P32  1  0.21428700  0.79223200  0.69938700  1
  P  P33  1  0.13095400  0.70776800  0.78272000  1
  P  P34  1  0.63563600  0.20776800  0.78394600  1
  P  P35  1  0.80526000  0.89159400  0.75825700  1
  P  P36  1  0.96133000  0.39159400  0.80841000  1
  P  P37  1  0.04466300  0.10840600  0.72507700  1
  P  P38  1  0.88859400  0.60840600  0.67492300  1
