# generated using pymatgen
data_Mg85Pd36
_symmetry_space_group_name_H-M   'P 1'
_cell_length_a   8.83883700
_cell_length_b   11.93708038
_cell_length_c   44.35540600
_cell_angle_alpha   87.49946255
_cell_angle_beta   90.00000000
_cell_angle_gamma   68.27044156
_symmetry_Int_Tables_number   1
_chemical_formula_structural   Mg85Pd36
_chemical_formula_sum   'Mg85 Pd36'
_cell_volume   4342.58916709
_cell_formula_units_Z   1
loop_
 _symmetry_equiv_pos_site_id
 _symmetry_equiv_pos_as_xyz
  1  'x, y, z'
loop_
 _atom_site_type_symbol
 _atom_site_label
 _atom_site_symmetry_multiplicity
 _atom_site_fract_x
 _atom_site_fract_y
 _atom_site_fract_z
 _atom_site_occupancy
  Mg  Mg0  1  0.59325500  0.81349100  0.29894900  1
  Mg  Mg1  1  0.00250800  0.99498500  0.28587200  1
  Mg  Mg2  1  0.37987300  0.24025400  0.27090700  1
  Mg  Mg3  1  0.21588900  0.56822200  0.31391500  1
  Mg  Mg4  1  0.79788100  0.40423800  0.29241100  1
  Mg  Mg5  1  0.22881700  0.96771600  0.38539300  1
  Mg  Mg6  1  0.90980400  0.18039100  0.33222400  1
  Mg  Mg7  1  0.80346700  0.96771600  0.38539300  1
  Mg  Mg8  1  0.11694500  0.34076000  0.32442900  1
  Mg  Mg9  1  0.43595800  0.12808500  0.37759700  1
  Mg  Mg10  1  0.54229500  0.34076000  0.32442900  1
  Mg  Mg11  1  0.02424200  0.52616600  0.37078000  1
  Mg  Mg12  1  0.34325500  0.31349100  0.42394900  1
  Mg  Mg13  1  0.44959200  0.52616600  0.37078000  1
  Mg  Mg14  1  0.32152000  0.78231000  0.33904100  1
  Mg  Mg15  1  0.75250800  0.49498500  0.41087200  1
  Mg  Mg16  1  0.89617000  0.78231000  0.33904100  1
  Mg  Mg17  1  0.66715900  0.04873000  0.31878800  1
  Mg  Mg18  1  0.12987300  0.74025400  0.39590700  1
  Mg  Mg19  1  0.28411100  0.04873000  0.31878800  1
  Mg  Mg20  1  0.67860300  0.25974600  0.39103400  1
  Mg  Mg21  1  0.96588900  0.06822200  0.43891500  1
  Mg  Mg22  1  0.06165100  0.25974600  0.39103400  1
  Mg  Mg23  1  0.54788100  0.90423800  0.41741100  1
  Mg  Mg24  1  0.67288100  0.65423800  0.35491100  1
  Mg  Mg25  1  0.97881700  0.46771600  0.51039300  1
  Mg  Mg26  1  0.65980400  0.68039100  0.45722400  1
  Mg  Mg27  1  0.55346700  0.46771600  0.51039300  1
  Mg  Mg28  1  0.86694500  0.84076000  0.44942900  1
  Mg  Mg29  1  0.18595800  0.62808500  0.50259700  1
  Mg  Mg30  1  0.29229500  0.84076000  0.44942900  1
  Mg  Mg31  1  0.77424200  0.02616600  0.49578000  1
  Mg  Mg32  1  0.09325500  0.81349100  0.54894900  1
  Mg  Mg33  1  0.19959200  0.02616600  0.49578000  1
  Mg  Mg34  1  0.07152000  0.28231000  0.46404100  1
  Mg  Mg35  1  0.50250800  0.99498500  0.53587200  1
  Mg  Mg36  1  0.64617000  0.28231000  0.46404100  1
  Mg  Mg37  1  0.41715900  0.54873000  0.44378800  1
  Mg  Mg38  1  0.87987300  0.24025400  0.52090700  1
  Mg  Mg39  1  0.03411100  0.54873000  0.44378800  1
  Mg  Mg40  1  0.42860300  0.75974600  0.51603400  1
  Mg  Mg41  1  0.71588900  0.56822200  0.56391500  1
  Mg  Mg42  1  0.81165100  0.75974600  0.51603400  1
  Mg  Mg43  1  0.29788100  0.40423800  0.54241100  1
  Mg  Mg44  1  0.42288100  0.15423800  0.47991100  1
  Mg  Mg45  1  0.72881700  0.96771600  0.63539300  1
  Mg  Mg46  1  0.40980400  0.18039100  0.58222400  1
  Mg  Mg47  1  0.30346700  0.96771600  0.63539300  1
  Mg  Mg48  1  0.61694500  0.34076000  0.57442900  1
  Mg  Mg49  1  0.93595800  0.12808500  0.62759700  1
  Mg  Mg50  1  0.04229500  0.34076000  0.57442900  1
  Mg  Mg51  1  0.52424200  0.52616600  0.62078000  1
  Mg  Mg52  1  0.84325500  0.31349100  0.67394900  1
  Mg  Mg53  1  0.94959200  0.52616600  0.62078000  1
  Mg  Mg54  1  0.82152000  0.78231000  0.58904100  1
  Mg  Mg55  1  0.25250800  0.49498500  0.66087200  1
  Mg  Mg56  1  0.39617000  0.78231000  0.58904100  1
  Mg  Mg57  1  0.16715900  0.04873000  0.56878800  1
  Mg  Mg58  1  0.62987300  0.74025400  0.64590700  1
  Mg  Mg59  1  0.78411100  0.04873000  0.56878800  1
  Mg  Mg60  1  0.17860300  0.25974600  0.64103400  1
  Mg  Mg61  1  0.46588900  0.06822200  0.68891500  1
  Mg  Mg62  1  0.56165100  0.25974600  0.64103400  1
  Mg  Mg63  1  0.04788100  0.90423800  0.66741100  1
  Mg  Mg64  1  0.17288100  0.65423800  0.60491100  1
  Mg  Mg65  1  0.47881700  0.46771600  0.76039300  1
  Mg  Mg66  1  0.15980400  0.68039100  0.70722400  1
  Mg  Mg67  1  0.05346700  0.46771600  0.76039300  1
  Mg  Mg68  1  0.36694500  0.84076000  0.69942900  1
  Mg  Mg69  1  0.68595800  0.62808500  0.75259700  1
  Mg  Mg70  1  0.79229500  0.84076000  0.69942900  1
  Mg  Mg71  1  0.27424200  0.02616600  0.74578000  1
  Mg  Mg72  1  0.59325500  0.81349100  0.79894900  1
  Mg  Mg73  1  0.69959200  0.02616600  0.74578000  1
  Mg  Mg74  1  0.57152000  0.28231000  0.71404100  1
  Mg  Mg75  1  0.00250800  0.99498500  0.78587200  1
  Mg  Mg76  1  0.14617000  0.28231000  0.71404100  1
  Mg  Mg77  1  0.91715900  0.54873000  0.69378800  1
  Mg  Mg78  1  0.37987300  0.24025400  0.77090700  1
  Mg  Mg79  1  0.53411100  0.54873000  0.69378800  1
  Mg  Mg80  1  0.92860300  0.75974600  0.76603400  1
  Mg  Mg81  1  0.21588900  0.56822200  0.81391500  1
  Mg  Mg82  1  0.31165100  0.75974600  0.76603400  1
  Mg  Mg83  1  0.79788100  0.40423800  0.79241100  1
  Mg  Mg84  1  0.92288100  0.15423800  0.72991100  1
  Pd  Pd85  1  0.07839000  0.21695000  0.27673300  1
  Pd  Pd86  1  0.70466000  0.21695000  0.27673300  1
  Pd  Pd87  1  0.51737200  0.59152600  0.30808900  1
  Pd  Pd88  1  0.89110200  0.59152600  0.30808900  1
  Pd  Pd89  1  0.82839000  0.71695000  0.40173300  1
  Pd  Pd90  1  0.54809300  0.90381500  0.35501700  1
  Pd  Pd91  1  0.45466000  0.71695000  0.40173300  1
  Pd  Pd92  1  0.26737200  0.09152600  0.43308900  1
  Pd  Pd93  1  0.79766900  0.40466100  0.35480500  1
  Pd  Pd94  1  0.64110200  0.09152600  0.43308900  1
  Pd  Pd95  1  0.02704800  0.94590500  0.34449400  1
  Pd  Pd96  1  0.31871400  0.36257100  0.36532700  1
  Pd  Pd97  1  0.57839000  0.21695000  0.52673300  1
  Pd  Pd98  1  0.29809300  0.40381500  0.48001700  1
  Pd  Pd99  1  0.20466000  0.21695000  0.52673300  1
  Pd  Pd100  1  0.01737200  0.59152600  0.55808900  1
  Pd  Pd101  1  0.54766900  0.90466100  0.47980500  1
  Pd  Pd102  1  0.39110200  0.59152600  0.55808900  1
  Pd  Pd103  1  0.77704800  0.44590500  0.46949400  1
  Pd  Pd104  1  0.06871400  0.86257100  0.49032700  1
  Pd  Pd105  1  0.32839000  0.71695000  0.65173300  1
  Pd  Pd106  1  0.04809300  0.90381500  0.60501700  1
  Pd  Pd107  1  0.95466000  0.71695000  0.65173300  1
  Pd  Pd108  1  0.76737200  0.09152600  0.68308900  1
  Pd  Pd109  1  0.29766900  0.40466100  0.60480500  1
  Pd  Pd110  1  0.14110200  0.09152600  0.68308900  1
  Pd  Pd111  1  0.52704800  0.94590500  0.59449400  1
  Pd  Pd112  1  0.81871400  0.36257100  0.61532700  1
  Pd  Pd113  1  0.07839000  0.21695000  0.77673300  1
  Pd  Pd114  1  0.79809300  0.40381500  0.73001700  1
  Pd  Pd115  1  0.70466000  0.21695000  0.77673300  1
  Pd  Pd116  1  0.51737200  0.59152600  0.80808900  1
  Pd  Pd117  1  0.04766900  0.90466100  0.72980500  1
  Pd  Pd118  1  0.89110200  0.59152600  0.80808900  1
  Pd  Pd119  1  0.27704800  0.44590500  0.71949400  1
  Pd  Pd120  1  0.56871400  0.86257100  0.74032700  1
