# generated using pymatgen
data_Mg17Pd30
_symmetry_space_group_name_H-M   'P 1'
_cell_length_a   4.30853900
_cell_length_b   12.03781485
_cell_length_c   49.04360200
_cell_angle_alpha   91.40300406
_cell_angle_beta   90.00000000
_cell_angle_gamma   90.00000000
_symmetry_Int_Tables_number   1
_chemical_formula_structural   Mg17Pd30
_chemical_formula_sum   'Mg34 Pd60'
_cell_volume   2542.90320535
_cell_formula_units_Z   2
loop_
 _symmetry_equiv_pos_site_id
 _symmetry_equiv_pos_as_xyz
  1  'x, y, z'
loop_
 _atom_site_type_symbol
 _atom_site_label
 _atom_site_symmetry_multiplicity
 _atom_site_fract_x
 _atom_site_fract_y
 _atom_site_fract_z
 _atom_site_occupancy
  Mg  Mg0  1  0.50000000  0.81590100  0.22638800  1
  Mg  Mg1  1  0.50000000  0.97138700  0.28611200  1
  Mg  Mg2  1  0.50000000  0.25144100  0.25861800  1
  Mg  Mg3  1  0.50000000  0.53584700  0.25388200  1
  Mg  Mg4  1  0.00000000  0.29364400  0.30625000  1
  Mg  Mg5  1  0.00000000  0.79364400  0.30625000  1
  Mg  Mg6  1  0.50000000  0.61590100  0.32638800  1
  Mg  Mg7  1  0.50000000  0.77138700  0.38611200  1
  Mg  Mg8  1  0.50000000  0.05144100  0.35861800  1
  Mg  Mg9  1  0.50000000  0.33584700  0.35388200  1
  Mg  Mg10  1  0.00000000  0.09364400  0.40625000  1
  Mg  Mg11  1  0.00000000  0.59364400  0.40625000  1
  Mg  Mg12  1  0.50000000  0.41590100  0.42638800  1
  Mg  Mg13  1  0.50000000  0.57138700  0.48611200  1
  Mg  Mg14  1  0.50000000  0.85144100  0.45861800  1
  Mg  Mg15  1  0.50000000  0.13584700  0.45388200  1
  Mg  Mg16  1  1.00000000  0.89364400  0.50625000  1
  Mg  Mg17  1  0.00000000  0.39364400  0.50625000  1
  Mg  Mg18  1  0.50000000  0.21590100  0.52638800  1
  Mg  Mg19  1  0.50000000  0.37138700  0.58611200  1
  Mg  Mg20  1  0.50000000  0.65144100  0.55861800  1
  Mg  Mg21  1  0.50000000  0.93584700  0.55388200  1
  Mg  Mg22  1  0.00000000  0.69364400  0.60625000  1
  Mg  Mg23  1  0.00000000  0.19364400  0.60625000  1
  Mg  Mg24  1  0.50000000  0.01590100  0.62638800  1
  Mg  Mg25  1  0.50000000  0.17138700  0.68611200  1
  Mg  Mg26  1  0.50000000  0.45144100  0.65861800  1
  Mg  Mg27  1  0.50000000  0.73584700  0.65388200  1
  Mg  Mg28  1  0.00000000  0.49364400  0.70625000  1
  Mg  Mg29  1  0.00000000  0.99364400  0.70625000  1
  Mg  Mg30  1  0.50000000  0.81590100  0.72638800  1
  Mg  Mg31  1  0.50000000  0.97138700  0.78611200  1
  Mg  Mg32  1  0.50000000  0.25144100  0.75861800  1
  Mg  Mg33  1  0.50000000  0.53584700  0.75388200  1
  Pd  Pd34  1  0.50000000  0.41749900  0.29989400  1
  Pd  Pd35  1  0.50000000  0.36978800  0.21260600  1
  Pd  Pd36  1  0.50000000  0.04761700  0.23483500  1
  Pd  Pd37  1  0.50000000  0.73967000  0.27766500  1
  Pd  Pd38  1  0.00000000  0.57628500  0.29301000  1
  Pd  Pd39  1  0.00000000  0.21100300  0.21949000  1
  Pd  Pd40  1  0.00000000  0.12086100  0.27072200  1
  Pd  Pd41  1  0.00000000  0.66642700  0.24177800  1
  Pd  Pd42  1  1.00000000  0.89364400  0.25625000  1
  Pd  Pd43  1  0.00000000  0.39364400  0.25625000  1
  Pd  Pd44  1  0.50000000  0.21749900  0.39989400  1
  Pd  Pd45  1  0.50000000  0.16978800  0.31260600  1
  Pd  Pd46  1  0.50000000  0.84761700  0.33483500  1
  Pd  Pd47  1  0.50000000  0.53967000  0.37766500  1
  Pd  Pd48  1  0.00000000  0.37628500  0.39301000  1
  Pd  Pd49  1  0.00000000  0.01100300  0.31949000  1
  Pd  Pd50  1  0.00000000  0.92086100  0.37072200  1
  Pd  Pd51  1  0.00000000  0.46642700  0.34177800  1
  Pd  Pd52  1  0.00000000  0.69364400  0.35625000  1
  Pd  Pd53  1  0.00000000  0.19364400  0.35625000  1
  Pd  Pd54  1  0.50000000  0.01749900  0.49989400  1
  Pd  Pd55  1  0.50000000  0.96978800  0.41260600  1
  Pd  Pd56  1  0.50000000  0.64761700  0.43483500  1
  Pd  Pd57  1  0.50000000  0.33967000  0.47766500  1
  Pd  Pd58  1  0.00000000  0.17628500  0.49301000  1
  Pd  Pd59  1  0.00000000  0.81100300  0.41949000  1
  Pd  Pd60  1  0.00000000  0.72086100  0.47072200  1
  Pd  Pd61  1  0.00000000  0.26642700  0.44177800  1
  Pd  Pd62  1  0.00000000  0.49364400  0.45625000  1
  Pd  Pd63  1  0.00000000  0.99364400  0.45625000  1
  Pd  Pd64  1  0.50000000  0.81749900  0.59989400  1
  Pd  Pd65  1  0.50000000  0.76978800  0.51260600  1
  Pd  Pd66  1  0.50000000  0.44761700  0.53483500  1
  Pd  Pd67  1  0.50000000  0.13967000  0.57766500  1
  Pd  Pd68  1  0.00000000  0.97628500  0.59301000  1
  Pd  Pd69  1  0.00000000  0.61100300  0.51949000  1
  Pd  Pd70  1  0.00000000  0.52086100  0.57072200  1
  Pd  Pd71  1  0.00000000  0.06642700  0.54177800  1
  Pd  Pd72  1  0.00000000  0.29364400  0.55625000  1
  Pd  Pd73  1  0.00000000  0.79364400  0.55625000  1
  Pd  Pd74  1  0.50000000  0.61749900  0.69989400  1
  Pd  Pd75  1  0.50000000  0.56978800  0.61260600  1
  Pd  Pd76  1  0.50000000  0.24761700  0.63483500  1
  Pd  Pd77  1  0.50000000  0.93967000  0.67766500  1
  Pd  Pd78  1  0.00000000  0.77628500  0.69301000  1
  Pd  Pd79  1  0.00000000  0.41100300  0.61949000  1
  Pd  Pd80  1  0.00000000  0.32086100  0.67072200  1
  Pd  Pd81  1  0.00000000  0.86642700  0.64177800  1
  Pd  Pd82  1  0.00000000  0.09364400  0.65625000  1
  Pd  Pd83  1  0.00000000  0.59364400  0.65625000  1
  Pd  Pd84  1  0.50000000  0.41749900  0.79989400  1
  Pd  Pd85  1  0.50000000  0.36978800  0.71260600  1
  Pd  Pd86  1  0.50000000  0.04761700  0.73483500  1
  Pd  Pd87  1  0.50000000  0.73967000  0.77766500  1
  Pd  Pd88  1  0.00000000  0.57628500  0.79301000  1
  Pd  Pd89  1  0.00000000  0.21100300  0.71949000  1
  Pd  Pd90  1  0.00000000  0.12086100  0.77072200  1
  Pd  Pd91  1  0.00000000  0.66642700  0.74177800  1
  Pd  Pd92  1  1.00000000  0.89364400  0.75625000  1
  Pd  Pd93  1  0.00000000  0.39364400  0.75625000  1
