# generated using pymatgen
data_Mg7Pd13
_symmetry_space_group_name_H-M   'P 1'
_cell_length_a   5.53884600
_cell_length_b   9.19052430
_cell_length_c   44.98568600
_cell_angle_alpha   95.80261083
_cell_angle_beta   90.00000000
_cell_angle_gamma   90.00000000
_symmetry_Int_Tables_number   1
_chemical_formula_structural   Mg7Pd13
_chemical_formula_sum   'Mg28 Pd52'
_cell_volume   2278.25810925
_cell_formula_units_Z   4
loop_
 _symmetry_equiv_pos_site_id
 _symmetry_equiv_pos_as_xyz
  1  'x, y, z'
loop_
 _atom_site_type_symbol
 _atom_site_label
 _atom_site_symmetry_multiplicity
 _atom_site_fract_x
 _atom_site_fract_y
 _atom_site_fract_z
 _atom_site_occupancy
  Mg  Mg0  1  0.16860900  0.26504400  0.27653300  1
  Mg  Mg1  1  0.83139100  0.51216700  0.25124500  1
  Mg  Mg2  1  0.66860900  0.01216700  0.25124500  1
  Mg  Mg3  1  0.33139100  0.76504400  0.27653300  1
  Mg  Mg4  1  0.16860900  0.09837700  0.35986600  1
  Mg  Mg5  1  0.83139100  0.34550000  0.33457800  1
  Mg  Mg6  1  0.66860900  0.84550000  0.33457800  1
  Mg  Mg7  1  0.33139100  0.59837700  0.35986600  1
  Mg  Mg8  1  0.16860900  0.93171100  0.44319900  1
  Mg  Mg9  1  0.83139100  0.17883300  0.41791200  1
  Mg  Mg10  1  0.66860900  0.67883300  0.41791200  1
  Mg  Mg11  1  0.33139100  0.43171100  0.44319900  1
  Mg  Mg12  1  0.16860900  0.76504400  0.52653300  1
  Mg  Mg13  1  0.83139100  0.01216700  0.50124500  1
  Mg  Mg14  1  0.66860900  0.51216700  0.50124500  1
  Mg  Mg15  1  0.33139100  0.26504400  0.52653300  1
  Mg  Mg16  1  0.16860900  0.59837700  0.60986600  1
  Mg  Mg17  1  0.83139100  0.84550000  0.58457800  1
  Mg  Mg18  1  0.66860900  0.34550000  0.58457800  1
  Mg  Mg19  1  0.33139100  0.09837700  0.60986600  1
  Mg  Mg20  1  0.16860900  0.43171100  0.69319900  1
  Mg  Mg21  1  0.83139100  0.67883300  0.66791200  1
  Mg  Mg22  1  0.66860900  0.17883300  0.66791200  1
  Mg  Mg23  1  0.33139100  0.93171100  0.69319900  1
  Mg  Mg24  1  0.16860900  0.26504400  0.77653300  1
  Mg  Mg25  1  0.83139100  0.51216700  0.75124500  1
  Mg  Mg26  1  0.66860900  0.01216700  0.75124500  1
  Mg  Mg27  1  0.33139100  0.76504400  0.77653300  1
  Pd  Pd28  1  0.15889900  0.99079000  0.24910700  1
  Pd  Pd29  1  0.84110100  0.78642100  0.27867000  1
  Pd  Pd30  1  0.65889900  0.28642100  0.27867000  1
  Pd  Pd31  1  0.34110100  0.49079000  0.24910700  1
  Pd  Pd32  1  0.15889900  0.82412300  0.33244100  1
  Pd  Pd33  1  0.84110100  0.61975500  0.36200400  1
  Pd  Pd34  1  0.65889900  0.11975500  0.36200400  1
  Pd  Pd35  1  0.34110100  0.32412300  0.33244100  1
  Pd  Pd36  1  0.06807400  0.54351100  0.30437900  1
  Pd  Pd37  1  0.93192600  0.06703300  0.30673200  1
  Pd  Pd38  1  0.56807400  0.56703300  0.30673200  1
  Pd  Pd39  1  0.43192600  0.04351100  0.30437900  1
  Pd  Pd40  1  0.15889900  0.65745600  0.41577400  1
  Pd  Pd41  1  0.84110100  0.45308800  0.44533700  1
  Pd  Pd42  1  0.65889900  0.95308800  0.44533700  1
  Pd  Pd43  1  0.34110100  0.15745600  0.41577400  1
  Pd  Pd44  1  0.06807400  0.37684500  0.38771300  1
  Pd  Pd45  1  0.93192600  0.90036600  0.39006500  1
  Pd  Pd46  1  0.56807400  0.40036600  0.39006500  1
  Pd  Pd47  1  0.43192600  0.87684500  0.38771300  1
  Pd  Pd48  1  0.15889900  0.49079000  0.49910700  1
  Pd  Pd49  1  0.84110100  0.28642100  0.52867000  1
  Pd  Pd50  1  0.65889900  0.78642100  0.52867000  1
  Pd  Pd51  1  0.34110100  0.99079000  0.49910700  1
  Pd  Pd52  1  0.06807400  0.21017800  0.47104600  1
  Pd  Pd53  1  0.93192600  0.73370000  0.47339800  1
  Pd  Pd54  1  0.56807400  0.23370000  0.47339800  1
  Pd  Pd55  1  0.43192600  0.71017800  0.47104600  1
  Pd  Pd56  1  0.15889900  0.32412300  0.58244100  1
  Pd  Pd57  1  0.84110100  0.11975500  0.61200400  1
  Pd  Pd58  1  0.65889900  0.61975500  0.61200400  1
  Pd  Pd59  1  0.34110100  0.82412300  0.58244100  1
  Pd  Pd60  1  0.06807400  0.04351100  0.55437900  1
  Pd  Pd61  1  0.93192600  0.56703300  0.55673200  1
  Pd  Pd62  1  0.56807400  0.06703300  0.55673200  1
  Pd  Pd63  1  0.43192600  0.54351100  0.55437900  1
  Pd  Pd64  1  0.15889900  0.15745600  0.66577400  1
  Pd  Pd65  1  0.84110100  0.95308800  0.69533700  1
  Pd  Pd66  1  0.65889900  0.45308800  0.69533700  1
  Pd  Pd67  1  0.34110100  0.65745600  0.66577400  1
  Pd  Pd68  1  0.06807400  0.87684500  0.63771300  1
  Pd  Pd69  1  0.93192600  0.40036600  0.64006500  1
  Pd  Pd70  1  0.56807400  0.90036600  0.64006500  1
  Pd  Pd71  1  0.43192600  0.37684500  0.63771300  1
  Pd  Pd72  1  0.15889900  0.99079000  0.74910700  1
  Pd  Pd73  1  0.84110100  0.78642100  0.77867000  1
  Pd  Pd74  1  0.65889900  0.28642100  0.77867000  1
  Pd  Pd75  1  0.34110100  0.49079000  0.74910700  1
  Pd  Pd76  1  0.06807400  0.71017800  0.72104600  1
  Pd  Pd77  1  0.93192600  0.23370000  0.72339800  1
  Pd  Pd78  1  0.56807400  0.73370000  0.72339800  1
  Pd  Pd79  1  0.43192600  0.21017800  0.72104600  1
