# generated using pymatgen
data_Mg34Hg19
_symmetry_space_group_name_H-M   'P 1'
_cell_length_a   5.97810100
_cell_length_b   14.38026390
_cell_length_c   46.22608200
_cell_angle_alpha   81.05172384
_cell_angle_beta   90.00000000
_cell_angle_gamma   90.00000000
_symmetry_Int_Tables_number   1
_chemical_formula_structural   Mg34Hg19
_chemical_formula_sum   'Mg68 Hg38'
_cell_volume   3925.53660475
_cell_formula_units_Z   2
loop_
 _symmetry_equiv_pos_site_id
 _symmetry_equiv_pos_as_xyz
  1  'x, y, z'
loop_
 _atom_site_type_symbol
 _atom_site_label
 _atom_site_symmetry_multiplicity
 _atom_site_fract_x
 _atom_site_fract_y
 _atom_site_fract_z
 _atom_site_occupancy
  Mg  Mg0  1  0.75000000  0.51572700  0.22177900  1
  Mg  Mg1  1  0.25000000  0.49318800  0.26685700  1
  Mg  Mg2  1  0.75000000  0.76365900  0.22177900  1
  Mg  Mg3  1  0.25000000  0.74111900  0.26685700  1
  Mg  Mg4  1  0.50000000  0.29509000  0.24431800  1
  Mg  Mg5  1  1.00000000  0.96175700  0.24431800  1
  Mg  Mg6  1  0.50000000  0.96175700  0.24431800  1
  Mg  Mg7  1  0.00000000  0.29509000  0.24431800  1
  Mg  Mg8  1  0.75000000  0.97027300  0.31268800  1
  Mg  Mg9  1  0.25000000  0.94773400  0.35776600  1
  Mg  Mg10  1  0.25000000  0.10550800  0.29014900  1
  Mg  Mg11  1  0.75000000  0.60588400  0.28939700  1
  Mg  Mg12  1  0.75000000  0.21820400  0.31268800  1
  Mg  Mg13  1  0.25000000  0.19566500  0.35776600  1
  Mg  Mg14  1  0.50000000  0.74963600  0.33522700  1
  Mg  Mg15  1  1.00000000  0.41630200  0.33522700  1
  Mg  Mg16  1  0.50000000  0.41630200  0.33522700  1
  Mg  Mg17  1  1.00000000  0.74963600  0.33522700  1
  Mg  Mg18  1  0.75000000  0.42481800  0.40359700  1
  Mg  Mg19  1  0.25000000  0.40227900  0.44867600  1
  Mg  Mg20  1  0.25000000  0.56005400  0.38105800  1
  Mg  Mg21  1  0.75000000  0.06043000  0.38030600  1
  Mg  Mg22  1  0.75000000  0.67274900  0.40359700  1
  Mg  Mg23  1  0.25000000  0.65021000  0.44867600  1
  Mg  Mg24  1  0.50000000  0.20418100  0.42613600  1
  Mg  Mg25  1  1.00000000  0.87084800  0.42613600  1
  Mg  Mg26  1  0.50000000  0.87084800  0.42613600  1
  Mg  Mg27  1  1.00000000  0.20418100  0.42613600  1
  Mg  Mg28  1  0.75000000  0.87936400  0.49450600  1
  Mg  Mg29  1  0.25000000  0.85682500  0.53958500  1
  Mg  Mg30  1  0.25000000  0.01459900  0.47196700  1
  Mg  Mg31  1  0.75000000  0.51497500  0.47121500  1
  Mg  Mg32  1  0.75000000  0.12729500  0.49450600  1
  Mg  Mg33  1  0.25000000  0.10475600  0.53958500  1
  Mg  Mg34  1  0.50000000  0.65872600  0.51704500  1
  Mg  Mg35  1  1.00000000  0.32539300  0.51704500  1
  Mg  Mg36  1  0.50000000  0.32539300  0.51704500  1
  Mg  Mg37  1  1.00000000  0.65872600  0.51704500  1
  Mg  Mg38  1  0.75000000  0.33390900  0.58541500  1
  Mg  Mg39  1  0.25000000  0.31137000  0.63049400  1
  Mg  Mg40  1  0.25000000  0.46914400  0.56287600  1
  Mg  Mg41  1  0.75000000  0.96952100  0.56212400  1
  Mg  Mg42  1  0.75000000  0.58184000  0.58541500  1
  Mg  Mg43  1  0.25000000  0.55930100  0.63049400  1
  Mg  Mg44  1  0.50000000  0.11327200  0.60795500  1
  Mg  Mg45  1  0.00000000  0.77993900  0.60795500  1
  Mg  Mg46  1  0.50000000  0.77993900  0.60795500  1
  Mg  Mg47  1  1.00000000  0.11327200  0.60795500  1
  Mg  Mg48  1  0.75000000  0.78845500  0.67632400  1
  Mg  Mg49  1  0.25000000  0.76591500  0.72140300  1
  Mg  Mg50  1  0.25000000  0.92369000  0.65378500  1
  Mg  Mg51  1  0.75000000  0.42406600  0.65303300  1
  Mg  Mg52  1  0.75000000  0.03638600  0.67632400  1
  Mg  Mg53  1  0.25000000  0.01384700  0.72140300  1
  Mg  Mg54  1  0.50000000  0.56781700  0.69886400  1
  Mg  Mg55  1  1.00000000  0.23448400  0.69886400  1
  Mg  Mg56  1  0.50000000  0.23448400  0.69886400  1
  Mg  Mg57  1  1.00000000  0.56781700  0.69886400  1
  Mg  Mg58  1  0.75000000  0.24300000  0.76723400  1
  Mg  Mg59  1  0.25000000  0.22046100  0.81231200  1
  Mg  Mg60  1  0.25000000  0.37823500  0.74469400  1
  Mg  Mg61  1  0.75000000  0.87861100  0.74394200  1
  Mg  Mg62  1  0.75000000  0.49093100  0.76723400  1
  Mg  Mg63  1  0.25000000  0.46839200  0.81231200  1
  Mg  Mg64  1  0.50000000  0.02236300  0.78977300  1
  Mg  Mg65  1  0.00000000  0.68902900  0.78977300  1
  Mg  Mg66  1  0.50000000  0.68902900  0.78977300  1
  Mg  Mg67  1  1.00000000  0.02236300  0.78977300  1
  Hg  Hg68  1  0.25000000  0.13845800  0.22424900  1
  Hg  Hg69  1  0.75000000  0.11838900  0.26438700  1
  Hg  Hg70  1  0.75000000  0.80552400  0.27973800  1
  Hg  Hg71  1  0.25000000  0.29549000  0.29980700  1
  Hg  Hg72  1  0.25000000  0.59300300  0.31515800  1
  Hg  Hg73  1  0.75000000  0.57293400  0.35529600  1
  Hg  Hg74  1  0.75000000  0.41590300  0.27973800  1
  Hg  Hg75  1  0.25000000  0.90586800  0.29980700  1
  Hg  Hg76  1  0.75000000  0.26006900  0.37064700  1
  Hg  Hg77  1  0.25000000  0.75003500  0.39071600  1
  Hg  Hg78  1  0.25000000  0.04754900  0.40606800  1
  Hg  Hg79  1  0.75000000  0.02748000  0.44620500  1
  Hg  Hg80  1  0.75000000  0.87044800  0.37064700  1
  Hg  Hg81  1  0.25000000  0.36041400  0.39071600  1
  Hg  Hg82  1  0.75000000  0.71461500  0.46155600  1
  Hg  Hg83  1  0.25000000  0.20458000  0.48162500  1
  Hg  Hg84  1  0.25000000  0.50209400  0.49697700  1
  Hg  Hg85  1  0.75000000  0.48202500  0.53711400  1
  Hg  Hg86  1  0.75000000  0.32499400  0.46155600  1
  Hg  Hg87  1  0.25000000  0.81495900  0.48162500  1
  Hg  Hg88  1  0.75000000  0.16916000  0.55246600  1
  Hg  Hg89  1  0.25000000  0.65912600  0.57253400  1
  Hg  Hg90  1  0.25000000  0.95664000  0.58788600  1
  Hg  Hg91  1  0.75000000  0.93657100  0.62802300  1
  Hg  Hg92  1  0.75000000  0.77953900  0.55246600  1
  Hg  Hg93  1  0.25000000  0.26950500  0.57253400  1
  Hg  Hg94  1  0.75000000  0.62370600  0.64337500  1
  Hg  Hg95  1  0.25000000  0.11367100  0.66344400  1
  Hg  Hg96  1  0.25000000  0.41118500  0.67879500  1
  Hg  Hg97  1  0.75000000  0.39111600  0.71893200  1
  Hg  Hg98  1  0.75000000  0.23408500  0.64337500  1
  Hg  Hg99  1  0.25000000  0.72405000  0.66344400  1
  Hg  Hg100  1  0.75000000  0.07825100  0.73428400  1
  Hg  Hg101  1  0.25000000  0.56821700  0.75435300  1
  Hg  Hg102  1  0.25000000  0.86573100  0.76970400  1
  Hg  Hg103  1  0.75000000  0.84566200  0.80984200  1
  Hg  Hg104  1  0.75000000  0.68863000  0.73428400  1
  Hg  Hg105  1  0.25000000  0.17859600  0.75435300  1
