# generated using pymatgen
data_Mg2Au
_symmetry_space_group_name_H-M   'P 1'
_cell_length_a   4.38771400
_cell_length_b   6.30829800
_cell_length_c   42.89028800
_cell_angle_alpha   90.00000000
_cell_angle_beta   90.00000000
_cell_angle_gamma   90.00000000
_symmetry_Int_Tables_number   1
_chemical_formula_structural   Mg2Au
_chemical_formula_sum   'Mg24 Au12'
_cell_volume   1187.16060112
_cell_formula_units_Z   12
loop_
 _symmetry_equiv_pos_site_id
 _symmetry_equiv_pos_as_xyz
  1  'x, y, z'
loop_
 _atom_site_type_symbol
 _atom_site_label
 _atom_site_symmetry_multiplicity
 _atom_site_fract_x
 _atom_site_fract_y
 _atom_site_fract_z
 _atom_site_occupancy
  Mg  Mg0  1  0.75000000  0.16681800  0.21072400  1
  Mg  Mg1  1  0.75000000  0.66681800  0.28927600  1
  Mg  Mg2  1  0.25000000  0.83318200  0.38927600  1
  Mg  Mg3  1  0.25000000  0.33318200  0.31072400  1
  Mg  Mg4  1  0.75000000  0.53839600  0.36129500  1
  Mg  Mg5  1  0.75000000  0.03839600  0.33870500  1
  Mg  Mg6  1  0.25000000  0.46160400  0.23870500  1
  Mg  Mg7  1  0.25000000  0.96160400  0.26129500  1
  Mg  Mg8  1  0.75000000  0.16681800  0.41072400  1
  Mg  Mg9  1  0.75000000  0.66681800  0.48927600  1
  Mg  Mg10  1  0.25000000  0.83318200  0.58927600  1
  Mg  Mg11  1  0.25000000  0.33318200  0.51072400  1
  Mg  Mg12  1  0.75000000  0.53839600  0.56129500  1
  Mg  Mg13  1  0.75000000  0.03839600  0.53870500  1
  Mg  Mg14  1  0.25000000  0.46160400  0.43870500  1
  Mg  Mg15  1  0.25000000  0.96160400  0.46129500  1
  Mg  Mg16  1  0.75000000  0.16681800  0.61072400  1
  Mg  Mg17  1  0.75000000  0.66681800  0.68927600  1
  Mg  Mg18  1  0.25000000  0.83318200  0.78927600  1
  Mg  Mg19  1  0.25000000  0.33318200  0.71072400  1
  Mg  Mg20  1  0.75000000  0.53839600  0.76129500  1
  Mg  Mg21  1  0.75000000  0.03839600  0.73870500  1
  Mg  Mg22  1  0.25000000  0.46160400  0.63870500  1
  Mg  Mg23  1  0.25000000  0.96160400  0.66129500  1
  Au  Au24  1  0.75000000  0.73655600  0.22585700  1
  Au  Au25  1  0.75000000  0.23655600  0.27414300  1
  Au  Au26  1  0.25000000  0.26344400  0.37414300  1
  Au  Au27  1  0.25000000  0.76344400  0.32585700  1
  Au  Au28  1  0.75000000  0.73655600  0.42585700  1
  Au  Au29  1  0.75000000  0.23655600  0.47414300  1
  Au  Au30  1  0.25000000  0.26344400  0.57414300  1
  Au  Au31  1  0.25000000  0.76344400  0.52585700  1
  Au  Au32  1  0.75000000  0.73655600  0.62585700  1
  Au  Au33  1  0.75000000  0.23655600  0.67414300  1
  Au  Au34  1  0.25000000  0.26344400  0.77414300  1
  Au  Au35  1  0.25000000  0.76344400  0.72585700  1
