# generated using pymatgen
data_Mg3Bi2
_symmetry_space_group_name_H-M   'P 1'
_cell_length_a   4.73063000
_cell_length_b   8.82222111
_cell_length_c   43.17621000
_cell_angle_alpha   86.85535067
_cell_angle_beta   86.85960654
_cell_angle_gamma   74.44823906
_symmetry_Int_Tables_number   1
_chemical_formula_structural   Mg3Bi2
_chemical_formula_sum   'Mg21 Bi14'
_cell_volume   1731.85409421
_cell_formula_units_Z   7
loop_
 _symmetry_equiv_pos_site_id
 _symmetry_equiv_pos_as_xyz
  1  'x, y, z'
loop_
 _atom_site_type_symbol
 _atom_site_label
 _atom_site_symmetry_multiplicity
 _atom_site_fract_x
 _atom_site_fract_y
 _atom_site_fract_z
 _atom_site_occupancy
  Mg  Mg0  1  0.47457200  0.51243700  0.24675200  1
  Mg  Mg1  1  0.79166700  0.87500000  0.25000000  1
  Mg  Mg2  1  0.10876100  0.23756300  0.25324800  1
  Mg  Mg3  1  0.05790500  0.26243700  0.33008600  1
  Mg  Mg4  1  0.37500000  0.62500000  0.33333300  1
  Mg  Mg5  1  0.69209500  0.98756300  0.33658100  1
  Mg  Mg6  1  0.64123900  0.01243700  0.41341900  1
  Mg  Mg7  1  0.95833300  0.37500000  0.41666700  1
  Mg  Mg8  1  0.27542800  0.73756300  0.41991400  1
  Mg  Mg9  1  0.22457200  0.76243700  0.49675200  1
  Mg  Mg10  1  0.54166700  0.12500000  0.50000000  1
  Mg  Mg11  1  0.85876100  0.48756300  0.50324800  1
  Mg  Mg12  1  0.80790500  0.51243700  0.58008600  1
  Mg  Mg13  1  0.12500000  0.87500000  0.58333300  1
  Mg  Mg14  1  0.44209500  0.23756300  0.58658100  1
  Mg  Mg15  1  0.39123900  0.26243700  0.66341900  1
  Mg  Mg16  1  0.70833300  0.62500000  0.66666700  1
  Mg  Mg17  1  0.02542800  0.98756300  0.66991400  1
  Mg  Mg18  1  0.97457200  0.01243700  0.74675200  1
  Mg  Mg19  1  0.29166700  0.37500000  0.75000000  1
  Mg  Mg20  1  0.60876100  0.73756300  0.75324800  1
  Bi  Bi21  1  0.64443200  0.20668900  0.21278000  1
  Bi  Bi22  1  0.93890200  0.54331100  0.28722000  1
  Bi  Bi23  1  0.22776500  0.95668900  0.29611400  1
  Bi  Bi24  1  0.52223500  0.29331100  0.37055300  1
  Bi  Bi25  1  0.81109800  0.70668900  0.37944700  1
  Bi  Bi26  1  0.10556800  0.04331100  0.45388600  1
  Bi  Bi27  1  0.39443200  0.45668900  0.46278000  1
  Bi  Bi28  1  0.68890200  0.79331100  0.53722000  1
  Bi  Bi29  1  0.97776500  0.20668900  0.54611400  1
  Bi  Bi30  1  0.27223500  0.54331100  0.62055300  1
  Bi  Bi31  1  0.56109800  0.95668900  0.62944700  1
  Bi  Bi32  1  0.85556800  0.29331100  0.70388600  1
  Bi  Bi33  1  0.14443200  0.70668900  0.71278000  1
  Bi  Bi34  1  0.43890200  0.04331100  0.78722000  1
