# generated using pymatgen
data_MgP4
_symmetry_space_group_name_H-M   'P 1'
_cell_length_a   5.12288200
_cell_length_b   8.53570435
_cell_length_c   45.69655900
_cell_angle_alpha   91.17090654
_cell_angle_beta   90.00000000
_cell_angle_gamma   90.00000000
_symmetry_Int_Tables_number   1
_chemical_formula_structural   MgP4
_chemical_formula_sum   'Mg11 P44'
_cell_volume   1997.77475134
_cell_formula_units_Z   11
loop_
 _symmetry_equiv_pos_site_id
 _symmetry_equiv_pos_as_xyz
  1  'x, y, z'
loop_
 _atom_site_type_symbol
 _atom_site_label
 _atom_site_symmetry_multiplicity
 _atom_site_fract_x
 _atom_site_fract_y
 _atom_site_fract_z
 _atom_site_occupancy
  Mg  Mg0  1  1.00000000  0.22500000  0.27500000  1
  Mg  Mg1  1  0.50000000  0.57500000  0.22500000  1
  Mg  Mg2  1  1.00000000  0.52500000  0.37500000  1
  Mg  Mg3  1  0.50000000  0.87500000  0.32500000  1
  Mg  Mg4  1  1.00000000  0.82500000  0.47500000  1
  Mg  Mg5  1  0.50000000  0.17500000  0.42500000  1
  Mg  Mg6  1  1.00000000  0.12500000  0.57500000  1
  Mg  Mg7  1  0.50000000  0.47500000  0.52500000  1
  Mg  Mg8  1  1.00000000  0.42500000  0.67500000  1
  Mg  Mg9  1  0.50000000  0.77500000  0.62500000  1
  Mg  Mg10  1  0.50000000  0.07500000  0.72500000  1
  P  P11  1  0.29223200  0.47846100  0.27492800  1
  P  P12  1  0.79223200  0.32153900  0.22507200  1
  P  P13  1  0.70776800  0.97153900  0.27507200  1
  P  P14  1  0.20776800  0.82846100  0.22492800  1
  P  P15  1  0.89159400  0.76374400  0.25473500  1
  P  P16  1  0.39159400  0.03625600  0.24526500  1
  P  P17  1  0.10840600  0.68625600  0.29526500  1
  P  P18  1  0.60840600  0.11374400  0.20473500  1
  P  P19  1  0.29223200  0.77846100  0.37492800  1
  P  P20  1  0.79223200  0.62153900  0.32507200  1
  P  P21  1  0.70776800  0.27153900  0.37507200  1
  P  P22  1  0.20776800  0.12846100  0.32492800  1
  P  P23  1  0.89159400  0.06374400  0.35473500  1
  P  P24  1  0.39159400  0.33625600  0.34526500  1
  P  P25  1  0.10840600  0.98625600  0.39526500  1
  P  P26  1  0.60840600  0.41374400  0.30473500  1
  P  P27  1  0.29223200  0.07846100  0.47492800  1
  P  P28  1  0.79223200  0.92153900  0.42507200  1
  P  P29  1  0.70776800  0.57153900  0.47507200  1
  P  P30  1  0.20776800  0.42846100  0.42492800  1
  P  P31  1  0.89159400  0.36374400  0.45473500  1
  P  P32  1  0.39159400  0.63625600  0.44526500  1
  P  P33  1  0.10840600  0.28625600  0.49526500  1
  P  P34  1  0.60840600  0.71374400  0.40473500  1
  P  P35  1  0.29223200  0.37846100  0.57492800  1
  P  P36  1  0.79223200  0.22153900  0.52507200  1
  P  P37  1  0.70776800  0.87153900  0.57507200  1
  P  P38  1  0.20776800  0.72846100  0.52492800  1
  P  P39  1  0.89159400  0.66374400  0.55473500  1
  P  P40  1  0.39159400  0.93625600  0.54526500  1
  P  P41  1  0.10840600  0.58625600  0.59526500  1
  P  P42  1  0.60840600  0.01374400  0.50473500  1
  P  P43  1  0.29223200  0.67846100  0.67492800  1
  P  P44  1  0.79223200  0.52153900  0.62507200  1
  P  P45  1  0.70776800  0.17153900  0.67507200  1
  P  P46  1  0.20776800  0.02846100  0.62492800  1
  P  P47  1  0.89159400  0.96374400  0.65473500  1
  P  P48  1  0.39159400  0.23625600  0.64526500  1
  P  P49  1  0.10840600  0.88625600  0.69526500  1
  P  P50  1  0.60840600  0.31374400  0.60473500  1
  P  P51  1  0.79223200  0.82153900  0.72507200  1
  P  P52  1  0.20776800  0.32846100  0.72492800  1
  P  P53  1  0.39159400  0.53625600  0.74526500  1
  P  P54  1  0.60840600  0.61374400  0.70473500  1
