# generated using pymatgen
data_LiMg
_symmetry_space_group_name_H-M   'P 1'
_cell_length_a   3.42748000
_cell_length_b   4.84718900
_cell_length_c   43.62470100
_cell_angle_alpha   90.00000000
_cell_angle_beta   90.00000000
_cell_angle_gamma   90.00000000
_symmetry_Int_Tables_number   1
_chemical_formula_structural   LiMg
_chemical_formula_sum   'Li11 Mg11'
_cell_volume   724.76522383
_cell_formula_units_Z   11
loop_
 _symmetry_equiv_pos_site_id
 _symmetry_equiv_pos_as_xyz
  1  'x, y, z'
loop_
 _atom_site_type_symbol
 _atom_site_label
 _atom_site_symmetry_multiplicity
 _atom_site_fract_x
 _atom_site_fract_y
 _atom_site_fract_z
 _atom_site_occupancy
  Li  Li0  1  1.00000000  0.75000000  0.22222200  1
  Li  Li1  1  1.00000000  0.25000000  0.27777800  1
  Li  Li2  1  1.00000000  0.75000000  0.33333300  1
  Li  Li3  1  0.00000000  0.25000000  0.38888900  1
  Li  Li4  1  1.00000000  0.75000000  0.44444400  1
  Li  Li5  1  1.00000000  0.25000000  0.50000000  1
  Li  Li6  1  1.00000000  0.75000000  0.55555600  1
  Li  Li7  1  1.00000000  0.25000000  0.61111100  1
  Li  Li8  1  1.00000000  0.75000000  0.66666700  1
  Li  Li9  1  1.00000000  0.25000000  0.72222200  1
  Li  Li10  1  1.00000000  0.75000000  0.77777800  1
  Mg  Mg11  1  0.50000000  0.25000000  0.22222200  1
  Mg  Mg12  1  0.50000000  0.75000000  0.27777800  1
  Mg  Mg13  1  0.50000000  0.25000000  0.33333300  1
  Mg  Mg14  1  0.50000000  0.75000000  0.38888900  1
  Mg  Mg15  1  0.50000000  0.25000000  0.44444400  1
  Mg  Mg16  1  0.50000000  0.75000000  0.50000000  1
  Mg  Mg17  1  0.50000000  0.25000000  0.55555600  1
  Mg  Mg18  1  0.50000000  0.75000000  0.61111100  1
  Mg  Mg19  1  0.50000000  0.25000000  0.66666700  1
  Mg  Mg20  1  0.50000000  0.75000000  0.72222200  1
  Mg  Mg21  1  0.50000000  0.25000000  0.77777800  1
