# generated using pymatgen
data_Mg67Si38
_symmetry_space_group_name_H-M   'P 1'
_cell_length_a   12.41651900
_cell_length_b   14.27249660
_cell_length_c   44.74766500
_cell_angle_alpha   90.16648621
_cell_angle_beta   90.00000000
_cell_angle_gamma   64.21593671
_symmetry_Int_Tables_number   1
_chemical_formula_structural   Mg67Si38
_chemical_formula_sum   'Mg134 Si76'
_cell_volume   7140.40101402
_cell_formula_units_Z   2
loop_
 _symmetry_equiv_pos_site_id
 _symmetry_equiv_pos_as_xyz
  1  'x, y, z'
loop_
 _atom_site_type_symbol
 _atom_site_label
 _atom_site_symmetry_multiplicity
 _atom_site_fract_x
 _atom_site_fract_y
 _atom_site_fract_z
 _atom_site_occupancy
  Mg  Mg0  1  0.79309100  0.03440600  0.23818600  1
  Mg  Mg1  1  0.38301900  0.53361600  0.23897600  1
  Mg  Mg2  1  0.00959400  0.51700100  0.25559200  1
  Mg  Mg3  1  0.42021900  0.05388300  0.21870900  1
  Mg  Mg4  1  0.04679300  0.03726800  0.23532500  1
  Mg  Mg5  1  0.63672100  0.53647800  0.23611500  1
  Mg  Mg6  1  0.48252800  0.84486400  0.26181400  1
  Mg  Mg7  1  0.89260000  0.34565400  0.26102400  1
  Mg  Mg8  1  0.26602600  0.36226900  0.24440800  1
  Mg  Mg9  1  0.31693900  0.90231000  0.20436700  1
  Mg  Mg10  1  0.22882600  0.84200200  0.26467500  1
  Mg  Mg11  1  0.63889800  0.34279200  0.26388500  1
  Mg  Mg12  1  0.91844500  0.72437200  0.21526300  1
  Mg  Mg13  1  0.53469300  0.21808100  0.22155400  1
  Mg  Mg14  1  0.13694600  0.21515600  0.22447800  1
  Mg  Mg15  1  0.60021200  0.74103700  0.19859800  1
  Mg  Mg16  1  0.20246500  0.73811200  0.20152300  1
  Mg  Mg17  1  0.81871300  0.23182100  0.20781400  1
  Mg  Mg18  1  0.33155300  0.95748300  0.31511000  1
  Mg  Mg19  1  0.92148100  0.45669300  0.31589900  1
  Mg  Mg20  1  0.54805500  0.44007800  0.33251500  1
  Mg  Mg21  1  0.95868000  0.97696000  0.29563300  1
  Mg  Mg22  1  0.58525500  0.96034400  0.31224800  1
  Mg  Mg23  1  0.17518300  0.45955500  0.31303800  1
  Mg  Mg24  1  0.02099000  0.76794100  0.33873700  1
  Mg  Mg25  1  0.43106200  0.26873000  0.33794700  1
  Mg  Mg26  1  0.80448700  0.28534600  0.32133100  1
  Mg  Mg27  1  0.85540100  0.82538700  0.28129100  1
  Mg  Mg28  1  0.76728800  0.76507900  0.34159800  1
  Mg  Mg29  1  0.17736000  0.26586900  0.34080800  1
  Mg  Mg30  1  0.45690700  0.64744900  0.29218600  1
  Mg  Mg31  1  0.07315500  0.14115800  0.29847700  1
  Mg  Mg32  1  0.67540800  0.13823300  0.30140200  1
  Mg  Mg33  1  0.13867300  0.66411300  0.27552200  1
  Mg  Mg34  1  0.74092600  0.66118900  0.27844600  1
  Mg  Mg35  1  0.35717500  0.15489800  0.28473700  1
  Mg  Mg36  1  0.87001400  0.88056000  0.39203300  1
  Mg  Mg37  1  0.45994200  0.37977000  0.39282200  1
  Mg  Mg38  1  0.08651700  0.36315500  0.40943800  1
  Mg  Mg39  1  0.49714200  0.90003700  0.37255600  1
  Mg  Mg40  1  0.12371600  0.88342100  0.38917100  1
  Mg  Mg41  1  0.71364400  0.38263200  0.38996100  1
  Mg  Mg42  1  0.55945100  0.69101800  0.41566000  1
  Mg  Mg43  1  0.96952300  0.19180700  0.41487000  1
  Mg  Mg44  1  0.34294900  0.20842300  0.39825400  1
  Mg  Mg45  1  0.39386200  0.74846400  0.35821400  1
  Mg  Mg46  1  0.30574900  0.68815600  0.41852100  1
  Mg  Mg47  1  0.71582100  0.18894600  0.41773100  1
  Mg  Mg48  1  0.99536800  0.57052600  0.36910900  1
  Mg  Mg49  1  0.61161600  0.06423500  0.37540000  1
  Mg  Mg50  1  0.21386900  0.06131000  0.37832500  1
  Mg  Mg51  1  0.67713500  0.58719000  0.35244500  1
  Mg  Mg52  1  0.27938800  0.58426600  0.35536900  1
  Mg  Mg53  1  0.89563600  0.07797500  0.36166000  1
  Mg  Mg54  1  0.40847600  0.80363700  0.46895600  1
  Mg  Mg55  1  0.99840400  0.30284700  0.46974500  1
  Mg  Mg56  1  0.62497800  0.28623200  0.48636100  1
  Mg  Mg57  1  0.03560300  0.82311400  0.44947900  1
  Mg  Mg58  1  0.66217800  0.80649800  0.46609400  1
  Mg  Mg59  1  0.25210600  0.30570900  0.46688400  1
  Mg  Mg60  1  0.09791300  0.61409500  0.49258300  1
  Mg  Mg61  1  0.50798500  0.11488400  0.49179300  1
  Mg  Mg62  1  0.88141000  0.13150000  0.47517800  1
  Mg  Mg63  1  0.93232400  0.67154100  0.43513700  1
  Mg  Mg64  1  0.84421100  0.61123300  0.49544400  1
  Mg  Mg65  1  0.25428300  0.11202300  0.49465500  1
  Mg  Mg66  1  0.53383000  0.49360300  0.44603200  1
  Mg  Mg67  1  0.15007800  0.98731200  0.45232300  1
  Mg  Mg68  1  0.75233100  0.98438700  0.45524800  1
  Mg  Mg69  1  0.21559600  0.51026700  0.42936800  1
  Mg  Mg70  1  0.81785000  0.50734200  0.43229200  1
  Mg  Mg71  1  0.43409800  0.00105200  0.43858300  1
  Mg  Mg72  1  0.94693700  0.72671400  0.54587900  1
  Mg  Mg73  1  0.53686500  0.22592400  0.54666800  1
  Mg  Mg74  1  0.16344000  0.20930900  0.56328400  1
  Mg  Mg75  1  0.57406500  0.74619100  0.52640200  1
  Mg  Mg76  1  0.20063900  0.72957500  0.54301700  1
  Mg  Mg77  1  0.79056700  0.22878600  0.54380700  1
  Mg  Mg78  1  0.63637400  0.53717200  0.56950600  1
  Mg  Mg79  1  0.04644600  0.03796100  0.56871600  1
  Mg  Mg80  1  0.41987200  0.05457700  0.55210100  1
  Mg  Mg81  1  0.47078500  0.59461800  0.51206000  1
  Mg  Mg82  1  0.38267200  0.53431000  0.57236700  1
  Mg  Mg83  1  0.79274400  0.03510000  0.57157800  1
  Mg  Mg84  1  0.07229100  0.41668000  0.52295500  1
  Mg  Mg85  1  0.68853900  0.91038900  0.52924600  1
  Mg  Mg86  1  0.29079200  0.90746400  0.53217100  1
  Mg  Mg87  1  0.75405800  0.43334400  0.50629100  1
  Mg  Mg88  1  0.35631100  0.43041900  0.50921600  1
  Mg  Mg89  1  0.97255900  0.92412900  0.51550600  1
  Mg  Mg90  1  0.48539900  0.64979100  0.62280200  1
  Mg  Mg91  1  0.07532700  0.14900100  0.62359200  1
  Mg  Mg92  1  0.70190100  0.13238500  0.64020700  1
  Mg  Mg93  1  0.11252700  0.66926800  0.60332500  1
  Mg  Mg94  1  0.73910100  0.65265200  0.61994000  1
  Mg  Mg95  1  0.32902900  0.15186200  0.62073000  1
  Mg  Mg96  1  0.17483600  0.46024800  0.64642900  1
  Mg  Mg97  1  0.58490800  0.96103800  0.64563900  1
  Mg  Mg98  1  0.95833400  0.97765400  0.62902400  1
  Mg  Mg99  1  0.00924700  0.51769500  0.58898300  1
  Mg  Mg100  1  0.92113400  0.45738700  0.64929000  1
  Mg  Mg101  1  0.33120600  0.95817700  0.64850100  1
  Mg  Mg102  1  0.61075300  0.33975700  0.59987800  1
  Mg  Mg103  1  0.22700100  0.83346600  0.60616900  1
  Mg  Mg104  1  0.82925400  0.83054100  0.60909400  1
  Mg  Mg105  1  0.29251900  0.35642100  0.58321400  1
  Mg  Mg106  1  0.89477300  0.35349600  0.58613900  1
  Mg  Mg107  1  0.51102100  0.84720600  0.59242900  1
  Mg  Mg108  1  0.02386000  0.57286800  0.69972500  1
  Mg  Mg109  1  0.61378800  0.07207800  0.70051500  1
  Mg  Mg110  1  0.24036300  0.05546200  0.71713000  1
  Mg  Mg111  1  0.65098800  0.59234500  0.68024800  1
  Mg  Mg112  1  0.27756300  0.57572900  0.69686300  1
  Mg  Mg113  1  0.86749100  0.07493900  0.69765300  1
  Mg  Mg114  1  0.71329800  0.38332500  0.72335200  1
  Mg  Mg115  1  0.12337000  0.88411500  0.72256200  1
  Mg  Mg116  1  0.49679500  0.90073100  0.70594700  1
  Mg  Mg117  1  0.54770800  0.44077100  0.66590600  1
  Mg  Mg118  1  0.45959500  0.38046400  0.72621300  1
  Mg  Mg119  1  0.86966700  0.88125400  0.72542400  1
  Mg  Mg120  1  0.14921400  0.26283400  0.67680100  1
  Mg  Mg121  1  0.76546200  0.75654300  0.68309200  1
  Mg  Mg122  1  0.36771600  0.75361800  0.68601700  1
  Mg  Mg123  1  0.83098100  0.27949800  0.66013700  1
  Mg  Mg124  1  0.43323400  0.27657300  0.66306200  1
  Mg  Mg125  1  0.04948200  0.77028300  0.66935200  1
  Mg  Mg126  1  0.18945000  0.51542200  0.75717100  1
  Mg  Mg127  1  0.08617000  0.36384800  0.74282900  1
  Mg  Mg128  1  0.68767600  0.18591000  0.75372400  1
  Mg  Mg129  1  0.30392400  0.67962000  0.76001500  1
  Mg  Mg130  1  0.90617700  0.67669500  0.76294000  1
  Mg  Mg131  1  0.36944200  0.20257500  0.73706000  1
  Mg  Mg132  1  0.97169600  0.19965000  0.73998500  1
  Mg  Mg133  1  0.58794400  0.69335900  0.74627600  1
  Si  Si134  1  0.68408300  0.84708900  0.24228800  1
  Si  Si135  1  0.91485200  0.38555000  0.20382600  1
  Si  Si136  1  0.59153700  0.03218100  0.25771200  1
  Si  Si137  1  0.82230600  0.57064300  0.21925100  1
  Si  Si138  1  0.41986100  0.70886600  0.23076900  1
  Si  Si139  1  0.31729700  0.24732700  0.19230800  1
  Si  Si140  1  0.16154400  0.55883300  0.21826700  1
  Si  Si141  1  0.26410800  0.02037200  0.25672800  1
  Si  Si142  1  0.57561400  0.39736000  0.20481000  1
  Si  Si143  1  0.01151200  0.85889800  0.24327200  1
  Si  Si144  1  0.22254400  0.77016600  0.31921100  1
  Si  Si145  1  0.45331400  0.30862700  0.28074900  1
  Si  Si146  1  0.12999800  0.95525800  0.33463500  1
  Si  Si147  1  0.36076700  0.49372000  0.29617400  1
  Si  Si148  1  0.95832300  0.63194300  0.30769200  1
  Si  Si149  1  0.85575800  0.17040400  0.26923100  1
  Si  Si150  1  0.70000500  0.48191000  0.29519000  1
  Si  Si151  1  0.80257000  0.94344900  0.33365100  1
  Si  Si152  1  0.11407600  0.32043600  0.28173300  1
  Si  Si153  1  0.54997300  0.78197500  0.32019500  1
  Si  Si154  1  0.76100600  0.69324200  0.39613400  1
  Si  Si155  1  0.99177500  0.23170400  0.35767200  1
  Si  Si156  1  0.66846000  0.87833500  0.41155800  1
  Si  Si157  1  0.89922900  0.41679700  0.37309700  1
  Si  Si158  1  0.49678400  0.55502000  0.38461500  1
  Si  Si159  1  0.39422000  0.09348100  0.34615400  1
  Si  Si160  1  0.23846700  0.40498700  0.37211300  1
  Si  Si161  1  0.34103100  0.86652600  0.41057400  1
  Si  Si162  1  0.65253700  0.24351300  0.35865700  1
  Si  Si163  1  0.08843500  0.70505200  0.39711800  1
  Si  Si164  1  0.29946800  0.61631900  0.47305700  1
  Si  Si165  1  0.53023700  0.15478100  0.43459500  1
  Si  Si166  1  0.20692100  0.80141200  0.48848100  1
  Si  Si167  1  0.43769000  0.33987400  0.45002000  1
  Si  Si168  1  0.03524600  0.47809600  0.46153800  1
  Si  Si169  1  0.93268200  0.01655800  0.42307700  1
  Si  Si170  1  0.77692800  0.32806400  0.44903600  1
  Si  Si171  1  0.87949300  0.78960300  0.48749700  1
  Si  Si172  1  0.19099900  0.16659000  0.43558000  1
  Si  Si173  1  0.62689600  0.62812900  0.47404100  1
  Si  Si174  1  0.83792900  0.53939600  0.54998000  1
  Si  Si175  1  0.06869800  0.07785800  0.51151900  1
  Si  Si176  1  0.74538300  0.72448900  0.56540500  1
  Si  Si177  1  0.97615200  0.26295100  0.52694300  1
  Si  Si178  1  0.57370700  0.40117300  0.53846200  1
  Si  Si179  1  0.47114300  0.93963500  0.50000000  1
  Si  Si180  1  0.31539000  0.25114100  0.52595900  1
  Si  Si181  1  0.41795400  0.71268000  0.56442000  1
  Si  Si182  1  0.72946000  0.08966700  0.51250300  1
  Si  Si183  1  0.16535800  0.55120600  0.55096400  1
  Si  Si184  1  0.37639100  0.46247300  0.62690300  1
  Si  Si185  1  0.60716000  0.00093500  0.58844200  1
  Si  Si186  1  0.28384400  0.64756600  0.64232800  1
  Si  Si187  1  0.51461400  0.18602700  0.60386600  1
  Si  Si188  1  0.11216900  0.32425000  0.61538500  1
  Si  Si189  1  0.00960500  0.86271200  0.57692300  1
  Si  Si190  1  0.85385200  0.17421800  0.60288200  1
  Si  Si191  1  0.95641600  0.63575700  0.64134300  1
  Si  Si192  1  0.26792200  0.01274400  0.58942600  1
  Si  Si193  1  0.70381900  0.47428300  0.62788700  1
  Si  Si194  1  0.91485200  0.38555000  0.70382600  1
  Si  Si195  1  0.14562100  0.92401200  0.66536500  1
  Si  Si196  1  0.82230600  0.57064300  0.71925100  1
  Si  Si197  1  0.05307500  0.10910400  0.68078900  1
  Si  Si198  1  0.65063000  0.24732700  0.69230800  1
  Si  Si199  1  0.54806600  0.78578900  0.65384600  1
  Si  Si200  1  0.39231300  0.09729500  0.67980500  1
  Si  Si201  1  0.49487700  0.55883300  0.71826700  1
  Si  Si202  1  0.80638300  0.93582100  0.66634900  1
  Si  Si203  1  0.24228100  0.39736000  0.70481000  1
  Si  Si204  1  0.68408300  0.84708900  0.74228800  1
  Si  Si205  1  0.59153700  0.03218100  0.75771200  1
  Si  Si206  1  0.18909200  0.17040400  0.76923100  1
  Si  Si207  1  0.08652800  0.70886600  0.73076900  1
  Si  Si208  1  0.93077500  0.02037200  0.75672800  1
  Si  Si209  1  0.34484500  0.85889800  0.74327200  1
