# generated using pymatgen
data_Mg4Pt13
_symmetry_space_group_name_H-M   'P 1'
_cell_length_a   3.96879800
_cell_length_b   5.61272730
_cell_length_c   42.18889700
_cell_angle_alpha   86.18592584
_cell_angle_beta   90.00000000
_cell_angle_gamma   90.00000000
_symmetry_Int_Tables_number   1
_chemical_formula_structural   Mg4Pt13
_chemical_formula_sum   'Mg8 Pt26'
_cell_volume   937.70913821
_cell_formula_units_Z   2
loop_
 _symmetry_equiv_pos_site_id
 _symmetry_equiv_pos_as_xyz
  1  'x, y, z'
loop_
 _atom_site_type_symbol
 _atom_site_label
 _atom_site_symmetry_multiplicity
 _atom_site_fract_x
 _atom_site_fract_y
 _atom_site_fract_z
 _atom_site_occupancy
  Mg  Mg0  1  0.00000000  0.60000000  0.25000000  1
  Mg  Mg1  1  0.00000000  0.06666700  0.31666700  1
  Mg  Mg2  1  0.00000000  0.53333300  0.38333300  1
  Mg  Mg3  1  0.00000000  0.00000000  0.45000000  1
  Mg  Mg4  1  0.00000000  0.46666700  0.51666700  1
  Mg  Mg5  1  0.00000000  0.93333300  0.58333300  1
  Mg  Mg6  1  0.00000000  0.40000000  0.65000000  1
  Mg  Mg7  1  0.00000000  0.86666700  0.71666700  1
  Pt  Pt8  1  0.50000000  0.36666700  0.21666700  1
  Pt  Pt9  1  0.50000000  0.86666700  0.21666700  1
  Pt  Pt10  1  0.00000000  0.10000000  0.25000000  1
  Pt  Pt11  1  0.50000000  0.83333300  0.28333300  1
  Pt  Pt12  1  0.50000000  0.33333300  0.28333300  1
  Pt  Pt13  1  0.00000000  0.56666700  0.31666700  1
  Pt  Pt14  1  0.50000000  0.30000000  0.35000000  1
  Pt  Pt15  1  0.50000000  0.80000000  0.35000000  1
  Pt  Pt16  1  0.00000000  0.03333300  0.38333300  1
  Pt  Pt17  1  0.50000000  0.76666700  0.41666700  1
  Pt  Pt18  1  0.50000000  0.26666700  0.41666700  1
  Pt  Pt19  1  0.00000000  0.50000000  0.45000000  1
  Pt  Pt20  1  0.50000000  0.23333300  0.48333300  1
  Pt  Pt21  1  0.50000000  0.73333300  0.48333300  1
  Pt  Pt22  1  0.00000000  0.96666700  0.51666700  1
  Pt  Pt23  1  0.50000000  0.70000000  0.55000000  1
  Pt  Pt24  1  0.50000000  0.20000000  0.55000000  1
  Pt  Pt25  1  0.00000000  0.43333300  0.58333300  1
  Pt  Pt26  1  0.50000000  0.16666700  0.61666700  1
  Pt  Pt27  1  0.50000000  0.66666700  0.61666700  1
  Pt  Pt28  1  0.00000000  0.90000000  0.65000000  1
  Pt  Pt29  1  0.50000000  0.63333300  0.68333300  1
  Pt  Pt30  1  0.50000000  0.13333300  0.68333300  1
  Pt  Pt31  1  0.00000000  0.36666700  0.71666700  1
  Pt  Pt32  1  0.50000000  0.10000000  0.75000000  1
  Pt  Pt33  1  0.50000000  0.60000000  0.75000000  1
