# generated using pymatgen
data_LiMg3
_symmetry_space_group_name_H-M   'P 1'
_cell_length_a   4.96990600
_cell_length_b   7.02850800
_cell_length_c   49.69905900
_cell_angle_alpha   90.00000000
_cell_angle_beta   90.00000000
_cell_angle_gamma   90.00000000
_symmetry_Int_Tables_number   1
_chemical_formula_structural   LiMg3
_chemical_formula_sum   'Li12 Mg36'
_cell_volume   1736.03902669
_cell_formula_units_Z   12
loop_
 _symmetry_equiv_pos_site_id
 _symmetry_equiv_pos_as_xyz
  1  'x, y, z'
loop_
 _atom_site_type_symbol
 _atom_site_label
 _atom_site_symmetry_multiplicity
 _atom_site_fract_x
 _atom_site_fract_y
 _atom_site_fract_z
 _atom_site_occupancy
  Li  Li0  1  0.25000000  0.00000000  0.22500000  1
  Li  Li1  1  0.75000000  0.50000000  0.27500000  1
  Li  Li2  1  0.25000000  0.00000000  0.32500000  1
  Li  Li3  1  0.75000000  0.50000000  0.37500000  1
  Li  Li4  1  0.25000000  0.00000000  0.42500000  1
  Li  Li5  1  0.75000000  0.50000000  0.47500000  1
  Li  Li6  1  0.25000000  0.00000000  0.52500000  1
  Li  Li7  1  0.75000000  0.50000000  0.57500000  1
  Li  Li8  1  0.25000000  0.00000000  0.62500000  1
  Li  Li9  1  0.75000000  0.50000000  0.67500000  1
  Li  Li10  1  0.25000000  0.00000000  0.72500000  1
  Li  Li11  1  0.75000000  0.50000000  0.77500000  1
  Mg  Mg12  1  0.75000000  0.00000000  0.27500000  1
  Mg  Mg13  1  0.25000000  0.25000000  0.27500000  1
  Mg  Mg14  1  0.75000000  0.25000000  0.22500000  1
  Mg  Mg15  1  0.25000000  0.50000000  0.22500000  1
  Mg  Mg16  1  0.75000000  0.75000000  0.22500000  1
  Mg  Mg17  1  0.25000000  0.75000000  0.27500000  1
  Mg  Mg18  1  0.75000000  0.00000000  0.37500000  1
  Mg  Mg19  1  0.25000000  0.25000000  0.37500000  1
  Mg  Mg20  1  0.75000000  0.25000000  0.32500000  1
  Mg  Mg21  1  0.25000000  0.50000000  0.32500000  1
  Mg  Mg22  1  0.75000000  0.75000000  0.32500000  1
  Mg  Mg23  1  0.25000000  0.75000000  0.37500000  1
  Mg  Mg24  1  0.75000000  0.00000000  0.47500000  1
  Mg  Mg25  1  0.25000000  0.25000000  0.47500000  1
  Mg  Mg26  1  0.75000000  0.25000000  0.42500000  1
  Mg  Mg27  1  0.25000000  0.50000000  0.42500000  1
  Mg  Mg28  1  0.75000000  0.75000000  0.42500000  1
  Mg  Mg29  1  0.25000000  0.75000000  0.47500000  1
  Mg  Mg30  1  0.75000000  0.00000000  0.57500000  1
  Mg  Mg31  1  0.25000000  0.25000000  0.57500000  1
  Mg  Mg32  1  0.75000000  0.25000000  0.52500000  1
  Mg  Mg33  1  0.25000000  0.50000000  0.52500000  1
  Mg  Mg34  1  0.75000000  0.75000000  0.52500000  1
  Mg  Mg35  1  0.25000000  0.75000000  0.57500000  1
  Mg  Mg36  1  0.75000000  0.00000000  0.67500000  1
  Mg  Mg37  1  0.25000000  0.25000000  0.67500000  1
  Mg  Mg38  1  0.75000000  0.25000000  0.62500000  1
  Mg  Mg39  1  0.25000000  0.50000000  0.62500000  1
  Mg  Mg40  1  0.75000000  0.75000000  0.62500000  1
  Mg  Mg41  1  0.25000000  0.75000000  0.67500000  1
  Mg  Mg42  1  0.75000000  0.00000000  0.77500000  1
  Mg  Mg43  1  0.25000000  0.25000000  0.77500000  1
  Mg  Mg44  1  0.75000000  0.25000000  0.72500000  1
  Mg  Mg45  1  0.25000000  0.50000000  0.72500000  1
  Mg  Mg46  1  0.75000000  0.75000000  0.72500000  1
  Mg  Mg47  1  0.25000000  0.75000000  0.77500000  1
