# generated using pymatgen
data_Mg20Hg9
_symmetry_space_group_name_H-M   'P 1'
_cell_length_a   4.75496500
_cell_length_b   10.73367025
_cell_length_c   41.14994800
_cell_angle_alpha   87.73861022
_cell_angle_beta   90.00000000
_cell_angle_gamma   90.00000000
_symmetry_Int_Tables_number   1
_chemical_formula_structural   Mg20Hg9
_chemical_formula_sum   'Mg40 Hg18'
_cell_volume   2098.58473503
_cell_formula_units_Z   2
loop_
 _symmetry_equiv_pos_site_id
 _symmetry_equiv_pos_as_xyz
  1  'x, y, z'
loop_
 _atom_site_type_symbol
 _atom_site_label
 _atom_site_symmetry_multiplicity
 _atom_site_fract_x
 _atom_site_fract_y
 _atom_site_fract_z
 _atom_site_occupancy
  Mg  Mg0  1  0.75000000  0.42611500  0.30056000  1
  Mg  Mg1  1  0.25000000  0.08989000  0.22027300  1
  Mg  Mg2  1  0.75000000  0.56543700  0.22842400  1
  Mg  Mg3  1  0.25000000  0.95056900  0.29240900  1
  Mg  Mg4  1  0.25000000  0.36330200  0.24597700  1
  Mg  Mg5  1  0.75000000  0.15270400  0.27485600  1
  Mg  Mg6  1  0.25000000  0.78582700  0.23048200  1
  Mg  Mg7  1  0.75000000  0.73017900  0.29035100  1
  Mg  Mg8  1  0.75000000  0.05111500  0.42556000  1
  Mg  Mg9  1  0.25000000  0.71489000  0.34527300  1
  Mg  Mg10  1  0.75000000  0.19043700  0.35342400  1
  Mg  Mg11  1  0.25000000  0.57556900  0.41740900  1
  Mg  Mg12  1  0.25000000  0.98830200  0.37097700  1
  Mg  Mg13  1  0.75000000  0.77770400  0.39985600  1
  Mg  Mg14  1  0.25000000  0.41082700  0.35548200  1
  Mg  Mg15  1  0.75000000  0.35517900  0.41535100  1
  Mg  Mg16  1  0.75000000  0.67611500  0.55056000  1
  Mg  Mg17  1  0.25000000  0.33989000  0.47027300  1
  Mg  Mg18  1  0.75000000  0.81543700  0.47842400  1
  Mg  Mg19  1  0.25000000  0.20056900  0.54240900  1
  Mg  Mg20  1  0.25000000  0.61330200  0.49597700  1
  Mg  Mg21  1  0.75000000  0.40270400  0.52485600  1
  Mg  Mg22  1  0.25000000  0.03582700  0.48048200  1
  Mg  Mg23  1  0.75000000  0.98017900  0.54035100  1
  Mg  Mg24  1  0.75000000  0.30111500  0.67556000  1
  Mg  Mg25  1  0.25000000  0.96489000  0.59527300  1
  Mg  Mg26  1  0.75000000  0.44043700  0.60342400  1
  Mg  Mg27  1  0.25000000  0.82556900  0.66740900  1
  Mg  Mg28  1  0.25000000  0.23830200  0.62097700  1
  Mg  Mg29  1  0.75000000  0.02770400  0.64985600  1
  Mg  Mg30  1  0.25000000  0.66082700  0.60548200  1
  Mg  Mg31  1  0.75000000  0.60517900  0.66535100  1
  Mg  Mg32  1  0.75000000  0.92611500  0.80056000  1
  Mg  Mg33  1  0.25000000  0.58989000  0.72027300  1
  Mg  Mg34  1  0.75000000  0.06543700  0.72842400  1
  Mg  Mg35  1  0.25000000  0.45056900  0.79240900  1
  Mg  Mg36  1  0.25000000  0.86330200  0.74597700  1
  Mg  Mg37  1  0.75000000  0.65270400  0.77485600  1
  Mg  Mg38  1  0.25000000  0.28582700  0.73048200  1
  Mg  Mg39  1  0.75000000  0.23017900  0.79035100  1
  Hg  Hg40  1  0.75000000  0.93069300  0.23900700  1
  Hg  Hg41  1  0.25000000  0.58531200  0.28182600  1
  Hg  Hg42  1  0.75000000  0.55569300  0.36400700  1
  Hg  Hg43  1  0.25000000  0.21031200  0.40682600  1
  Hg  Hg44  1  0.75000000  0.92011600  0.33689200  1
  Hg  Hg45  1  0.25000000  0.22089000  0.30894200  1
  Hg  Hg46  1  0.75000000  0.18069300  0.48900700  1
  Hg  Hg47  1  0.25000000  0.83531200  0.53182600  1
  Hg  Hg48  1  0.75000000  0.54511600  0.46189200  1
  Hg  Hg49  1  0.25000000  0.84589000  0.43394200  1
  Hg  Hg50  1  0.75000000  0.80569300  0.61400700  1
  Hg  Hg51  1  0.25000000  0.46031200  0.65682600  1
  Hg  Hg52  1  0.75000000  0.17011600  0.58689200  1
  Hg  Hg53  1  0.25000000  0.47089000  0.55894200  1
  Hg  Hg54  1  0.75000000  0.43069300  0.73900700  1
  Hg  Hg55  1  0.25000000  0.08531200  0.78182600  1
  Hg  Hg56  1  0.75000000  0.79511600  0.71189200  1
  Hg  Hg57  1  0.25000000  0.09589000  0.68394200  1
