# generated using pymatgen
data_Mg53Zn97
_symmetry_space_group_name_H-M   'P 1'
_cell_length_a   13.26606209
_cell_length_b   14.70723619
_cell_length_c   50.02254400
_cell_angle_alpha   94.04592358
_cell_angle_beta   85.51984715
_cell_angle_gamma   104.27395804
_symmetry_Int_Tables_number   1
_chemical_formula_structural   Mg53Zn97
_chemical_formula_sum   'Mg106 Zn194'
_cell_volume   9416.24948960
_cell_formula_units_Z   2
loop_
 _symmetry_equiv_pos_site_id
 _symmetry_equiv_pos_as_xyz
  1  'x, y, z'
loop_
 _atom_site_type_symbol
 _atom_site_label
 _atom_site_symmetry_multiplicity
 _atom_site_fract_x
 _atom_site_fract_y
 _atom_site_fract_z
 _atom_site_occupancy
  Mg  Mg0  1  0.69160400  0.89982000  0.26030700  1
  Mg  Mg1  1  0.99554200  0.71342500  0.27659800  1
  Mg  Mg2  1  0.50992300  0.35231700  0.30276200  1
  Mg  Mg3  1  0.87006700  0.95641800  0.21671200  1
  Mg  Mg4  1  0.95110600  0.60215500  0.22111900  1
  Mg  Mg5  1  0.52360300  0.02805300  0.25105400  1
  Mg  Mg6  1  0.71262300  0.57654400  0.20881700  1
  Mg  Mg7  1  0.09029000  0.04358200  0.22874300  1
  Mg  Mg8  1  0.59129200  0.67618400  0.25497700  1
  Mg  Mg9  1  0.00925100  0.39784500  0.22433600  1
  Mg  Mg10  1  0.35043400  0.64768300  0.24269200  1
  Mg  Mg11  1  0.26906500  0.32381600  0.29047700  1
  Mg  Mg12  1  0.94296700  0.90491200  0.27354800  1
  Mg  Mg13  1  0.62766500  0.25117100  0.25683700  1
  Mg  Mg14  1  0.23269200  0.74882900  0.28861700  1
  Mg  Mg15  1  0.24773300  0.42345600  0.23663700  1
  Mg  Mg16  1  0.16875300  0.10018000  0.28514700  1
  Mg  Mg17  1  0.33675400  0.97194700  0.29440000  1
  Mg  Mg18  1  0.86481400  0.28657500  0.26885700  1
  Mg  Mg19  1  0.91739000  0.09508800  0.27190700  1
  Mg  Mg20  1  0.59160400  0.89982000  0.36030700  1
  Mg  Mg21  1  0.89554200  0.71342500  0.37659800  1
  Mg  Mg22  1  0.40992300  0.35231700  0.40276200  1
  Mg  Mg23  1  0.77006700  0.95641800  0.31671200  1
  Mg  Mg24  1  0.85110600  0.60215500  0.32111900  1
  Mg  Mg25  1  0.42360300  0.02805300  0.35105400  1
  Mg  Mg26  1  0.61262300  0.57654400  0.30881700  1
  Mg  Mg27  1  0.99029000  0.04358200  0.32874300  1
  Mg  Mg28  1  0.49129200  0.67618400  0.35497700  1
  Mg  Mg29  1  0.90925100  0.39784500  0.32433600  1
  Mg  Mg30  1  0.25043400  0.64768300  0.34269200  1
  Mg  Mg31  1  0.16906500  0.32381600  0.39047700  1
  Mg  Mg32  1  0.84296700  0.90491200  0.37354800  1
  Mg  Mg33  1  0.52766500  0.25117100  0.35683700  1
  Mg  Mg34  1  0.13269200  0.74882900  0.38861700  1
  Mg  Mg35  1  0.14773300  0.42345600  0.33663700  1
  Mg  Mg36  1  0.06875300  0.10018000  0.38514700  1
  Mg  Mg37  1  0.23675400  0.97194700  0.39440000  1
  Mg  Mg38  1  0.76481400  0.28657500  0.36885700  1
  Mg  Mg39  1  0.81739000  0.09508800  0.37190700  1
  Mg  Mg40  1  0.49160400  0.89982000  0.46030700  1
  Mg  Mg41  1  0.79554200  0.71342500  0.47659800  1
  Mg  Mg42  1  0.30992300  0.35231700  0.50276200  1
  Mg  Mg43  1  0.67006700  0.95641800  0.41671200  1
  Mg  Mg44  1  0.75110600  0.60215500  0.42111900  1
  Mg  Mg45  1  0.32360300  0.02805300  0.45105400  1
  Mg  Mg46  1  0.51262300  0.57654400  0.40881700  1
  Mg  Mg47  1  0.89029000  0.04358200  0.42874300  1
  Mg  Mg48  1  0.39129200  0.67618400  0.45497700  1
  Mg  Mg49  1  0.80925100  0.39784500  0.42433600  1
  Mg  Mg50  1  0.15043400  0.64768300  0.44269200  1
  Mg  Mg51  1  0.06906500  0.32381600  0.49047700  1
  Mg  Mg52  1  0.74296700  0.90491200  0.47354800  1
  Mg  Mg53  1  0.42766500  0.25117100  0.45683700  1
  Mg  Mg54  1  0.03269200  0.74882900  0.48861700  1
  Mg  Mg55  1  0.04773300  0.42345600  0.43663700  1
  Mg  Mg56  1  0.96875300  0.10018000  0.48514700  1
  Mg  Mg57  1  0.13675400  0.97194700  0.49440000  1
  Mg  Mg58  1  0.66481400  0.28657500  0.46885700  1
  Mg  Mg59  1  0.71739000  0.09508800  0.47190700  1
  Mg  Mg60  1  0.39160400  0.89982000  0.56030700  1
  Mg  Mg61  1  0.69554200  0.71342500  0.57659800  1
  Mg  Mg62  1  0.20992300  0.35231700  0.60276200  1
  Mg  Mg63  1  0.57006700  0.95641800  0.51671200  1
  Mg  Mg64  1  0.65110600  0.60215500  0.52111900  1
  Mg  Mg65  1  0.22360300  0.02805300  0.55105400  1
  Mg  Mg66  1  0.41262300  0.57654400  0.50881700  1
  Mg  Mg67  1  0.79029000  0.04358200  0.52874300  1
  Mg  Mg68  1  0.29129200  0.67618400  0.55497700  1
  Mg  Mg69  1  0.70925100  0.39784500  0.52433600  1
  Mg  Mg70  1  0.05043400  0.64768300  0.54269200  1
  Mg  Mg71  1  0.96906500  0.32381600  0.59047700  1
  Mg  Mg72  1  0.64296700  0.90491200  0.57354800  1
  Mg  Mg73  1  0.32766500  0.25117100  0.55683700  1
  Mg  Mg74  1  0.93269200  0.74882900  0.58861700  1
  Mg  Mg75  1  0.94773300  0.42345600  0.53663700  1
  Mg  Mg76  1  0.86875300  0.10018000  0.58514700  1
  Mg  Mg77  1  0.03675400  0.97194700  0.59440000  1
  Mg  Mg78  1  0.56481400  0.28657500  0.56885700  1
  Mg  Mg79  1  0.61739000  0.09508800  0.57190700  1
  Mg  Mg80  1  0.29160400  0.89982000  0.66030700  1
  Mg  Mg81  1  0.59554200  0.71342500  0.67659800  1
  Mg  Mg82  1  0.10992300  0.35231700  0.70276200  1
  Mg  Mg83  1  0.47006700  0.95641800  0.61671200  1
  Mg  Mg84  1  0.55110600  0.60215500  0.62111900  1
  Mg  Mg85  1  0.12360300  0.02805300  0.65105400  1
  Mg  Mg86  1  0.31262300  0.57654400  0.60881700  1
  Mg  Mg87  1  0.69029000  0.04358200  0.62874300  1
  Mg  Mg88  1  0.19129200  0.67618400  0.65497700  1
  Mg  Mg89  1  0.60925100  0.39784500  0.62433600  1
  Mg  Mg90  1  0.95043400  0.64768300  0.64269200  1
  Mg  Mg91  1  0.86906500  0.32381600  0.69047700  1
  Mg  Mg92  1  0.54296700  0.90491200  0.67354800  1
  Mg  Mg93  1  0.22766500  0.25117100  0.65683700  1
  Mg  Mg94  1  0.83269200  0.74882900  0.68861700  1
  Mg  Mg95  1  0.84773300  0.42345600  0.63663700  1
  Mg  Mg96  1  0.76875300  0.10018000  0.68514700  1
  Mg  Mg97  1  0.93675400  0.97194700  0.69440000  1
  Mg  Mg98  1  0.46481400  0.28657500  0.66885700  1
  Mg  Mg99  1  0.51739000  0.09508800  0.67190700  1
  Mg  Mg100  1  0.37006700  0.95641800  0.71671200  1
  Mg  Mg101  1  0.45110600  0.60215500  0.72111900  1
  Mg  Mg102  1  0.21262300  0.57654400  0.70881700  1
  Mg  Mg103  1  0.59029000  0.04358200  0.72874300  1
  Mg  Mg104  1  0.50925100  0.39784500  0.72433600  1
  Mg  Mg105  1  0.74773300  0.42345600  0.73663700  1
  Zn  Zn106  1  0.78651300  0.59229000  0.26559800  1
  Zn  Zn107  1  0.01407500  0.81738700  0.22458800  1
  Zn  Zn108  1  0.41843900  0.66285200  0.29805500  1
  Zn  Zn109  1  0.09261300  0.24831100  0.25502500  1
  Zn  Zn110  1  0.17433100  0.57676400  0.20714000  1
  Zn  Zn111  1  0.82127600  0.75046900  0.24099100  1
  Zn  Zn112  1  0.48017800  0.50000000  0.22272700  1
  Zn  Zn113  1  0.07384300  0.40771000  0.27985700  1
  Zn  Zn114  1  0.33647800  0.86290600  0.24139500  1
  Zn  Zn115  1  0.73502600  0.42312300  0.28893700  1
  Zn  Zn116  1  0.50916700  0.82447600  0.22461200  1
  Zn  Zn117  1  0.65596300  0.96319600  0.20575500  1
  Zn  Zn118  1  0.61001400  0.46639900  0.25583300  1
  Zn  Zn119  1  0.79910700  0.26762300  0.21261700  1
  Zn  Zn120  1  0.94628200  0.18261300  0.22086600  1
  Zn  Zn121  1  0.62387900  0.13709400  0.20406000  1
  Zn  Zn122  1  0.70497500  0.09965700  0.28622700  1
  Zn  Zn123  1  0.12533000  0.57687700  0.25651800  1
  Zn  Zn124  1  0.13908100  0.24953100  0.20446400  1
  Zn  Zn125  1  0.25034200  0.53360100  0.28962200  1
  Zn  Zn126  1  0.15538100  0.90034300  0.25922800  1
  Zn  Zn127  1  0.78602600  0.42323600  0.23831500  1
  Zn  Zn128  1  0.43017800  0.50000000  0.27272700  1
  Zn  Zn129  1  0.69189200  0.78453800  0.20813900  1
  Zn  Zn130  1  0.45814400  0.82500200  0.27413000  1
  Zn  Zn131  1  0.75614500  0.09783900  0.23769900  1
  Zn  Zn132  1  0.26846500  0.21546200  0.23731600  1
  Zn  Zn133  1  0.20421200  0.90216100  0.20775600  1
  Zn  Zn134  1  0.16125000  0.73237700  0.23283700  1
  Zn  Zn135  1  0.40221300  0.17499800  0.27132400  1
  Zn  Zn136  1  0.76774400  0.75168900  0.29043000  1
  Zn  Zn137  1  0.93017800  0.50000000  0.27272700  1
  Zn  Zn138  1  0.45118900  0.17552400  0.22084300  1
  Zn  Zn139  1  0.30439400  0.03680400  0.23969900  1
  Zn  Zn140  1  0.44191800  0.33714800  0.24739900  1
  Zn  Zn141  1  0.68651300  0.59229000  0.36559800  1
  Zn  Zn142  1  0.91407500  0.81738700  0.32458800  1
  Zn  Zn143  1  0.31843900  0.66285200  0.39805500  1
  Zn  Zn144  1  0.99261300  0.24831100  0.35502500  1
  Zn  Zn145  1  0.07433100  0.57676400  0.30714000  1
  Zn  Zn146  1  0.72127600  0.75046900  0.34099100  1
  Zn  Zn147  1  0.38017800  0.50000000  0.32272700  1
  Zn  Zn148  1  0.97384300  0.40771000  0.37985700  1
  Zn  Zn149  1  0.23647800  0.86290600  0.34139500  1
  Zn  Zn150  1  0.63502600  0.42312300  0.38893700  1
  Zn  Zn151  1  0.40916700  0.82447600  0.32461200  1
  Zn  Zn152  1  0.55596300  0.96319600  0.30575500  1
  Zn  Zn153  1  0.51001400  0.46639900  0.35583300  1
  Zn  Zn154  1  0.69910700  0.26762300  0.31261700  1
  Zn  Zn155  1  0.84628200  0.18261300  0.32086600  1
  Zn  Zn156  1  0.52387900  0.13709400  0.30406000  1
  Zn  Zn157  1  0.60497500  0.09965700  0.38622700  1
  Zn  Zn158  1  0.02533000  0.57687700  0.35651800  1
  Zn  Zn159  1  0.03908100  0.24953100  0.30446400  1
  Zn  Zn160  1  0.15034200  0.53360100  0.38962200  1
  Zn  Zn161  1  0.05538100  0.90034300  0.35922800  1
  Zn  Zn162  1  0.68602600  0.42323600  0.33831500  1
  Zn  Zn163  1  0.33017800  0.50000000  0.37272700  1
  Zn  Zn164  1  0.59189200  0.78453800  0.30813900  1
  Zn  Zn165  1  0.35814400  0.82500200  0.37413000  1
  Zn  Zn166  1  0.65614500  0.09783900  0.33769900  1
  Zn  Zn167  1  0.16846500  0.21546200  0.33731600  1
  Zn  Zn168  1  0.10421200  0.90216100  0.30775600  1
  Zn  Zn169  1  0.06125000  0.73237700  0.33283700  1
  Zn  Zn170  1  0.30221300  0.17499800  0.37132400  1
  Zn  Zn171  1  0.66774400  0.75168900  0.39043000  1
  Zn  Zn172  1  0.83017800  0.50000000  0.37272700  1
  Zn  Zn173  1  0.35118900  0.17552400  0.32084300  1
  Zn  Zn174  1  0.20439400  0.03680400  0.33969900  1
  Zn  Zn175  1  0.34191800  0.33714800  0.34739900  1
  Zn  Zn176  1  0.58651300  0.59229000  0.46559800  1
  Zn  Zn177  1  0.81407500  0.81738700  0.42458800  1
  Zn  Zn178  1  0.21843900  0.66285200  0.49805500  1
  Zn  Zn179  1  0.89261300  0.24831100  0.45502500  1
  Zn  Zn180  1  0.97433100  0.57676400  0.40714000  1
  Zn  Zn181  1  0.62127600  0.75046900  0.44099100  1
  Zn  Zn182  1  0.28017800  0.50000000  0.42272700  1
  Zn  Zn183  1  0.87384300  0.40771000  0.47985700  1
  Zn  Zn184  1  0.13647800  0.86290600  0.44139500  1
  Zn  Zn185  1  0.53502600  0.42312300  0.48893700  1
  Zn  Zn186  1  0.30916700  0.82447600  0.42461200  1
  Zn  Zn187  1  0.45596300  0.96319600  0.40575500  1
  Zn  Zn188  1  0.41001400  0.46639900  0.45583300  1
  Zn  Zn189  1  0.59910700  0.26762300  0.41261700  1
  Zn  Zn190  1  0.74628200  0.18261300  0.42086600  1
  Zn  Zn191  1  0.42387900  0.13709400  0.40406000  1
  Zn  Zn192  1  0.50497500  0.09965700  0.48622700  1
  Zn  Zn193  1  0.92533000  0.57687700  0.45651800  1
  Zn  Zn194  1  0.93908100  0.24953100  0.40446400  1
  Zn  Zn195  1  0.05034200  0.53360100  0.48962200  1
  Zn  Zn196  1  0.95538100  0.90034300  0.45922800  1
  Zn  Zn197  1  0.58602600  0.42323600  0.43831500  1
  Zn  Zn198  1  0.23017800  0.50000000  0.47272700  1
  Zn  Zn199  1  0.49189200  0.78453800  0.40813900  1
  Zn  Zn200  1  0.25814400  0.82500200  0.47413000  1
  Zn  Zn201  1  0.55614500  0.09783900  0.43769900  1
  Zn  Zn202  1  0.06846500  0.21546200  0.43731600  1
  Zn  Zn203  1  0.00421200  0.90216100  0.40775600  1
  Zn  Zn204  1  0.96125000  0.73237700  0.43283700  1
  Zn  Zn205  1  0.20221300  0.17499800  0.47132400  1
  Zn  Zn206  1  0.56774400  0.75168900  0.49043000  1
  Zn  Zn207  1  0.73017800  0.50000000  0.47272700  1
  Zn  Zn208  1  0.25118900  0.17552400  0.42084300  1
  Zn  Zn209  1  0.10439400  0.03680400  0.43969900  1
  Zn  Zn210  1  0.24191800  0.33714800  0.44739900  1
  Zn  Zn211  1  0.48651300  0.59229000  0.56559800  1
  Zn  Zn212  1  0.71407500  0.81738700  0.52458800  1
  Zn  Zn213  1  0.11843900  0.66285200  0.59805500  1
  Zn  Zn214  1  0.79261300  0.24831100  0.55502500  1
  Zn  Zn215  1  0.87433100  0.57676400  0.50714000  1
  Zn  Zn216  1  0.52127600  0.75046900  0.54099100  1
  Zn  Zn217  1  0.18017800  0.50000000  0.52272700  1
  Zn  Zn218  1  0.77384300  0.40771000  0.57985700  1
  Zn  Zn219  1  0.03647800  0.86290600  0.54139500  1
  Zn  Zn220  1  0.43502600  0.42312300  0.58893700  1
  Zn  Zn221  1  0.20916700  0.82447600  0.52461200  1
  Zn  Zn222  1  0.35596300  0.96319600  0.50575500  1
  Zn  Zn223  1  0.31001400  0.46639900  0.55583300  1
  Zn  Zn224  1  0.49910700  0.26762300  0.51261700  1
  Zn  Zn225  1  0.64628200  0.18261300  0.52086600  1
  Zn  Zn226  1  0.32387900  0.13709400  0.50406000  1
  Zn  Zn227  1  0.40497500  0.09965700  0.58622700  1
  Zn  Zn228  1  0.82533000  0.57687700  0.55651800  1
  Zn  Zn229  1  0.83908100  0.24953100  0.50446400  1
  Zn  Zn230  1  0.95034200  0.53360100  0.58962200  1
  Zn  Zn231  1  0.85538100  0.90034300  0.55922800  1
  Zn  Zn232  1  0.48602600  0.42323600  0.53831500  1
  Zn  Zn233  1  0.13017800  0.50000000  0.57272700  1
  Zn  Zn234  1  0.39189200  0.78453800  0.50813900  1
  Zn  Zn235  1  0.15814400  0.82500200  0.57413000  1
  Zn  Zn236  1  0.45614500  0.09783900  0.53769900  1
  Zn  Zn237  1  0.96846500  0.21546200  0.53731600  1
  Zn  Zn238  1  0.90421200  0.90216100  0.50775600  1
  Zn  Zn239  1  0.86125000  0.73237700  0.53283700  1
  Zn  Zn240  1  0.10221300  0.17499800  0.57132400  1
  Zn  Zn241  1  0.46774400  0.75168900  0.59043000  1
  Zn  Zn242  1  0.63017800  0.50000000  0.57272700  1
  Zn  Zn243  1  0.15118900  0.17552400  0.52084300  1
  Zn  Zn244  1  0.00439400  0.03680400  0.53969900  1
  Zn  Zn245  1  0.14191800  0.33714800  0.54739900  1
  Zn  Zn246  1  0.38651300  0.59229000  0.66559800  1
  Zn  Zn247  1  0.61407500  0.81738700  0.62458800  1
  Zn  Zn248  1  0.01843900  0.66285200  0.69805500  1
  Zn  Zn249  1  0.69261300  0.24831100  0.65502500  1
  Zn  Zn250  1  0.77433100  0.57676400  0.60714000  1
  Zn  Zn251  1  0.42127600  0.75046900  0.64099100  1
  Zn  Zn252  1  0.08017800  0.50000000  0.62272700  1
  Zn  Zn253  1  0.67384300  0.40771000  0.67985700  1
  Zn  Zn254  1  0.93647800  0.86290600  0.64139500  1
  Zn  Zn255  1  0.33502600  0.42312300  0.68893700  1
  Zn  Zn256  1  0.10916700  0.82447600  0.62461200  1
  Zn  Zn257  1  0.25596300  0.96319600  0.60575500  1
  Zn  Zn258  1  0.21001400  0.46639900  0.65583300  1
  Zn  Zn259  1  0.39910700  0.26762300  0.61261700  1
  Zn  Zn260  1  0.54628200  0.18261300  0.62086600  1
  Zn  Zn261  1  0.22387900  0.13709400  0.60406000  1
  Zn  Zn262  1  0.30497500  0.09965700  0.68622700  1
  Zn  Zn263  1  0.72533000  0.57687700  0.65651800  1
  Zn  Zn264  1  0.73908100  0.24953100  0.60446400  1
  Zn  Zn265  1  0.85034200  0.53360100  0.68962200  1
  Zn  Zn266  1  0.75538100  0.90034300  0.65922800  1
  Zn  Zn267  1  0.38602600  0.42323600  0.63831500  1
  Zn  Zn268  1  0.03017800  0.50000000  0.67272700  1
  Zn  Zn269  1  0.29189200  0.78453800  0.60813900  1
  Zn  Zn270  1  0.05814400  0.82500200  0.67413000  1
  Zn  Zn271  1  0.35614500  0.09783900  0.63769900  1
  Zn  Zn272  1  0.86846500  0.21546200  0.63731600  1
  Zn  Zn273  1  0.80421200  0.90216100  0.60775600  1
  Zn  Zn274  1  0.76125000  0.73237700  0.63283700  1
  Zn  Zn275  1  0.00221300  0.17499800  0.67132400  1
  Zn  Zn276  1  0.36774400  0.75168900  0.69043000  1
  Zn  Zn277  1  0.53017800  0.50000000  0.67272700  1
  Zn  Zn278  1  0.05118900  0.17552400  0.62084300  1
  Zn  Zn279  1  0.90439400  0.03680400  0.63969900  1
  Zn  Zn280  1  0.04191800  0.33714800  0.64739900  1
  Zn  Zn281  1  0.51407500  0.81738700  0.72458800  1
  Zn  Zn282  1  0.67433100  0.57676400  0.70714000  1
  Zn  Zn283  1  0.32127600  0.75046900  0.74099100  1
  Zn  Zn284  1  0.98017800  0.50000000  0.72272700  1
  Zn  Zn285  1  0.83647800  0.86290600  0.74139500  1
  Zn  Zn286  1  0.00916700  0.82447600  0.72461200  1
  Zn  Zn287  1  0.15596300  0.96319600  0.70575500  1
  Zn  Zn288  1  0.29910700  0.26762300  0.71261700  1
  Zn  Zn289  1  0.44628200  0.18261300  0.72086600  1
  Zn  Zn290  1  0.12387900  0.13709400  0.70406000  1
  Zn  Zn291  1  0.63908100  0.24953100  0.70446400  1
  Zn  Zn292  1  0.28602600  0.42323600  0.73831500  1
  Zn  Zn293  1  0.19189200  0.78453800  0.70813900  1
  Zn  Zn294  1  0.25614500  0.09783900  0.73769900  1
  Zn  Zn295  1  0.76846500  0.21546200  0.73731600  1
  Zn  Zn296  1  0.70421200  0.90216100  0.70775600  1
  Zn  Zn297  1  0.66125000  0.73237700  0.73283700  1
  Zn  Zn298  1  0.95118900  0.17552400  0.72084300  1
  Zn  Zn299  1  0.80439400  0.03680400  0.73969900  1
