# generated using pymatgen
data_MgAu3
_symmetry_space_group_name_H-M   'P 1'
_cell_length_a   5.98733200
_cell_length_b   9.58286600
_cell_length_c   59.94941800
_cell_angle_alpha   90.00000000
_cell_angle_beta   90.00000000
_cell_angle_gamma   90.00000000
_symmetry_Int_Tables_number   1
_chemical_formula_structural   MgAu3
_chemical_formula_sum   'Mg30 Au90'
_cell_volume   3439.64583248
_cell_formula_units_Z   30
loop_
 _symmetry_equiv_pos_site_id
 _symmetry_equiv_pos_as_xyz
  1  'x, y, z'
loop_
 _atom_site_type_symbol
 _atom_site_label
 _atom_site_symmetry_multiplicity
 _atom_site_fract_x
 _atom_site_fract_y
 _atom_site_fract_z
 _atom_site_occupancy
  Mg  Mg0  1  0.50000000  0.49920200  0.27121200  1
  Mg  Mg1  1  0.00000000  0.50079800  0.18712100  1
  Mg  Mg2  1  0.00000000  0.99920200  0.18712100  1
  Mg  Mg3  1  0.50000000  0.00079800  0.27121200  1
  Mg  Mg4  1  0.50000000  0.25000000  0.49158700  1
  Mg  Mg5  1  0.00000000  0.75000000  0.30008000  1
  Mg  Mg6  1  0.00000000  0.25000000  0.24242000  1
  Mg  Mg7  1  0.50000000  0.75000000  0.21591400  1
  Mg  Mg8  1  0.00000000  0.49920200  0.43787900  1
  Mg  Mg9  1  0.50000000  0.50079800  0.35378800  1
  Mg  Mg10  1  0.50000000  0.99920200  0.35378800  1
  Mg  Mg11  1  0.00000000  0.00079800  0.43787900  1
  Mg  Mg12  1  0.00000000  0.25000000  0.32492000  1
  Mg  Mg13  1  0.50000000  0.75000000  0.46674700  1
  Mg  Mg14  1  0.50000000  0.25000000  0.40908600  1
  Mg  Mg15  1  0.00000000  0.75000000  0.38258000  1
  Mg  Mg16  1  0.50000000  0.49920200  0.60454500  1
  Mg  Mg17  1  0.00000000  0.50079800  0.52045500  1
  Mg  Mg18  1  0.00000000  0.99920200  0.52045500  1
  Mg  Mg19  1  0.50000000  0.00079800  0.60454500  1
  Mg  Mg20  1  0.00000000  0.75000000  0.63341300  1
  Mg  Mg21  1  0.00000000  0.25000000  0.57575300  1
  Mg  Mg22  1  0.50000000  0.75000000  0.54924700  1
  Mg  Mg23  1  0.00000000  0.49920200  0.77121200  1
  Mg  Mg24  1  0.50000000  0.50079800  0.68712100  1
  Mg  Mg25  1  0.50000000  0.99920200  0.68712100  1
  Mg  Mg26  1  0.00000000  0.00079800  0.77121200  1
  Mg  Mg27  1  0.00000000  0.25000000  0.65825300  1
  Mg  Mg28  1  0.50000000  0.25000000  0.74242000  1
  Mg  Mg29  1  0.00000000  0.75000000  0.71591400  1
  Au  Au30  1  0.74887800  0.00000000  0.47916700  1
  Au  Au31  1  0.25112200  0.50000000  0.47916700  1
  Au  Au32  1  0.25112200  0.00000000  0.47916700  1
  Au  Au33  1  0.74887800  0.50000000  0.47916700  1
  Au  Au34  1  0.50000000  0.00054900  0.18784600  1
  Au  Au35  1  0.00000000  0.99945100  0.27048700  1
  Au  Au36  1  0.00000000  0.50054900  0.27048700  1
  Au  Au37  1  0.50000000  0.49945100  0.18784600  1
  Au  Au38  1  0.25204300  0.75000000  0.25808100  1
  Au  Au39  1  0.75204300  0.25000000  0.20025200  1
  Au  Au40  1  0.24795700  0.25000000  0.20025200  1
  Au  Au41  1  0.74795700  0.75000000  0.25808100  1
  Au  Au42  1  0.74955100  0.75000000  0.17483600  1
  Au  Au43  1  0.24955100  0.25000000  0.28349700  1
  Au  Au44  1  0.75044900  0.25000000  0.28349700  1
  Au  Au45  1  0.25044900  0.75000000  0.17483600  1
  Au  Au46  1  0.75000000  0.50000000  0.22916700  1
  Au  Au47  1  0.25000000  0.50000000  0.22916700  1
  Au  Au48  1  0.75000000  0.00000000  0.22916700  1
  Au  Au49  1  0.25000000  0.00000000  0.22916700  1
  Au  Au50  1  0.50000000  0.25000000  0.24190800  1
  Au  Au51  1  0.00000000  0.75000000  0.21642500  1
  Au  Au52  1  0.00000000  0.25000000  0.49269500  1
  Au  Au53  1  0.50000000  0.75000000  0.29897200  1
  Au  Au54  1  0.24887800  0.00000000  0.31250000  1
  Au  Au55  1  0.75112200  0.50000000  0.31250000  1
  Au  Au56  1  0.75112200  0.00000000  0.31250000  1
  Au  Au57  1  0.24887800  0.50000000  0.31250000  1
  Au  Au58  1  0.00000000  0.00054900  0.35451300  1
  Au  Au59  1  0.50000000  0.99945100  0.43715400  1
  Au  Au60  1  0.50000000  0.50054900  0.43715400  1
  Au  Au61  1  0.00000000  0.49945100  0.35451300  1
  Au  Au62  1  0.75204300  0.75000000  0.42474800  1
  Au  Au63  1  0.25204300  0.25000000  0.36691900  1
  Au  Au64  1  0.74795700  0.25000000  0.36691900  1
  Au  Au65  1  0.24795700  0.75000000  0.42474800  1
  Au  Au66  1  0.24955100  0.75000000  0.34150300  1
  Au  Au67  1  0.74955100  0.25000000  0.45016400  1
  Au  Au68  1  0.25044900  0.25000000  0.45016400  1
  Au  Au69  1  0.75044900  0.75000000  0.34150300  1
  Au  Au70  1  0.25000000  0.50000000  0.39583300  1
  Au  Au71  1  0.75000000  0.50000000  0.39583300  1
  Au  Au72  1  0.25000000  0.00000000  0.39583300  1
  Au  Au73  1  0.75000000  0.00000000  0.39583300  1
  Au  Au74  1  0.00000000  0.25000000  0.40857500  1
  Au  Au75  1  0.50000000  0.75000000  0.38309200  1
  Au  Au76  1  0.50000000  0.25000000  0.32602800  1
  Au  Au77  1  0.00000000  0.75000000  0.46563800  1
  Au  Au78  1  0.50000000  0.00054900  0.52117900  1
  Au  Au79  1  0.00000000  0.99945100  0.60382100  1
  Au  Au80  1  0.00000000  0.50054900  0.60382100  1
  Au  Au81  1  0.50000000  0.49945100  0.52117900  1
  Au  Au82  1  0.25204300  0.75000000  0.59141400  1
  Au  Au83  1  0.75204300  0.25000000  0.53358600  1
  Au  Au84  1  0.24795700  0.25000000  0.53358600  1
  Au  Au85  1  0.74795700  0.75000000  0.59141400  1
  Au  Au86  1  0.74955100  0.75000000  0.50816900  1
  Au  Au87  1  0.24955100  0.25000000  0.61683100  1
  Au  Au88  1  0.75044900  0.25000000  0.61683100  1
  Au  Au89  1  0.25044900  0.75000000  0.50816900  1
  Au  Au90  1  0.75000000  0.50000000  0.56250000  1
  Au  Au91  1  0.25000000  0.50000000  0.56250000  1
  Au  Au92  1  0.75000000  0.00000000  0.56250000  1
  Au  Au93  1  0.25000000  0.00000000  0.56250000  1
  Au  Au94  1  0.50000000  0.25000000  0.57524100  1
  Au  Au95  1  0.00000000  0.75000000  0.54975900  1
  Au  Au96  1  0.50000000  0.75000000  0.63230500  1
  Au  Au97  1  0.24887800  0.00000000  0.64583300  1
  Au  Au98  1  0.75112200  0.50000000  0.64583300  1
  Au  Au99  1  0.75112200  0.00000000  0.64583300  1
  Au  Au100  1  0.24887800  0.50000000  0.64583300  1
  Au  Au101  1  0.00000000  0.00054900  0.68784600  1
  Au  Au102  1  0.50000000  0.99945100  0.77048700  1
  Au  Au103  1  0.50000000  0.50054900  0.77048700  1
  Au  Au104  1  0.00000000  0.49945100  0.68784600  1
  Au  Au105  1  0.75204300  0.75000000  0.75808100  1
  Au  Au106  1  0.25204300  0.25000000  0.70025200  1
  Au  Au107  1  0.74795700  0.25000000  0.70025200  1
  Au  Au108  1  0.24795700  0.75000000  0.75808100  1
  Au  Au109  1  0.24955100  0.75000000  0.67483600  1
  Au  Au110  1  0.74955100  0.25000000  0.78349700  1
  Au  Au111  1  0.25044900  0.25000000  0.78349700  1
  Au  Au112  1  0.75044900  0.75000000  0.67483600  1
  Au  Au113  1  0.25000000  0.50000000  0.72916700  1
  Au  Au114  1  0.75000000  0.50000000  0.72916700  1
  Au  Au115  1  0.25000000  0.00000000  0.72916700  1
  Au  Au116  1  0.75000000  0.00000000  0.72916700  1
  Au  Au117  1  0.00000000  0.25000000  0.74190800  1
  Au  Au118  1  0.50000000  0.75000000  0.71642500  1
  Au  Au119  1  0.50000000  0.25000000  0.65936200  1
