# generated using pymatgen
data_MgSc
_symmetry_space_group_name_H-M   'P 1'
_cell_length_a   3.59882700
_cell_length_b   5.08951100
_cell_length_c   40.71608500
_cell_angle_alpha   90.00000000
_cell_angle_beta   90.00000000
_cell_angle_gamma   90.00000000
_symmetry_Int_Tables_number   1
_chemical_formula_structural   MgSc
_chemical_formula_sum   'Mg10 Sc10'
_cell_volume   745.76679006
_cell_formula_units_Z   10
loop_
 _symmetry_equiv_pos_site_id
 _symmetry_equiv_pos_as_xyz
  1  'x, y, z'
loop_
 _atom_site_type_symbol
 _atom_site_label
 _atom_site_symmetry_multiplicity
 _atom_site_fract_x
 _atom_site_fract_y
 _atom_site_fract_z
 _atom_site_occupancy
  Mg  Mg0  1  0.00000000  0.75000000  0.21875000  1
  Mg  Mg1  1  0.00000000  0.25000000  0.28125000  1
  Mg  Mg2  1  0.00000000  0.75000000  0.34375000  1
  Mg  Mg3  1  0.00000000  0.25000000  0.40625000  1
  Mg  Mg4  1  0.00000000  0.75000000  0.46875000  1
  Mg  Mg5  1  0.00000000  0.25000000  0.53125000  1
  Mg  Mg6  1  0.00000000  0.75000000  0.59375000  1
  Mg  Mg7  1  0.00000000  0.25000000  0.65625000  1
  Mg  Mg8  1  0.00000000  0.75000000  0.71875000  1
  Mg  Mg9  1  0.00000000  0.25000000  0.78125000  1
  Sc  Sc10  1  0.50000000  0.25000000  0.21875000  1
  Sc  Sc11  1  0.50000000  0.75000000  0.28125000  1
  Sc  Sc12  1  0.50000000  0.25000000  0.34375000  1
  Sc  Sc13  1  0.50000000  0.75000000  0.40625000  1
  Sc  Sc14  1  0.50000000  0.25000000  0.46875000  1
  Sc  Sc15  1  0.50000000  0.75000000  0.53125000  1
  Sc  Sc16  1  0.50000000  0.25000000  0.59375000  1
  Sc  Sc17  1  0.50000000  0.75000000  0.65625000  1
  Sc  Sc18  1  0.50000000  0.25000000  0.71875000  1
  Sc  Sc19  1  0.50000000  0.75000000  0.78125000  1
