# generated using pymatgen
data_Mg43Ir10
_symmetry_space_group_name_H-M   'P 1'
_cell_length_a   8.24582600
_cell_length_b   9.82944229
_cell_length_c   49.03777500
_cell_angle_alpha   90.00000000
_cell_angle_beta   90.00000000
_cell_angle_gamma   106.23813566
_symmetry_Int_Tables_number   1
_chemical_formula_structural   Mg43Ir10
_chemical_formula_sum   'Mg86 Ir20'
_cell_volume   3816.04764390
_cell_formula_units_Z   2
loop_
 _symmetry_equiv_pos_site_id
 _symmetry_equiv_pos_as_xyz
  1  'x, y, z'
loop_
 _atom_site_type_symbol
 _atom_site_label
 _atom_site_symmetry_multiplicity
 _atom_site_fract_x
 _atom_site_fract_y
 _atom_site_fract_z
 _atom_site_occupancy
  Mg  Mg0  1  0.91586700  0.24760000  0.80729200  1
  Mg  Mg1  1  0.66586700  0.49760000  0.72395800  1
  Mg  Mg2  1  0.41586700  0.74760000  0.80729200  1
  Mg  Mg3  1  0.41586700  0.24760000  0.80729200  1
  Mg  Mg4  1  0.16586700  0.49760000  0.72395800  1
  Mg  Mg5  1  0.91586700  0.74760000  0.80729200  1
  Mg  Mg6  1  0.09959600  0.54878700  0.78520100  1
  Mg  Mg7  1  0.41586700  0.49760000  0.76813900  1
  Mg  Mg8  1  0.73213700  0.44641200  0.78520100  1
  Mg  Mg9  1  0.73213700  0.94641200  0.82938200  1
  Mg  Mg10  1  0.91586700  0.49760000  0.67977800  1
  Mg  Mg11  1  0.09959600  0.04878700  0.82938200  1
  Mg  Mg12  1  0.91586700  0.99760000  0.72395800  1
  Mg  Mg13  1  0.41586700  0.99760000  0.72395800  1
  Mg  Mg14  1  0.33195300  0.25983600  0.70531500  1
  Mg  Mg15  1  0.17287000  0.78258800  0.68957400  1
  Mg  Mg16  1  0.22879900  0.95037500  0.77698600  1
  Mg  Mg17  1  0.60293400  0.04482500  0.77698600  1
  Mg  Mg18  1  0.65886300  0.21261100  0.68957400  1
  Mg  Mg19  1  0.49978000  0.73536400  0.70531500  1
  Mg  Mg20  1  0.99978000  0.73536400  0.74260100  1
  Mg  Mg21  1  0.15886300  0.21261100  0.75834300  1
  Mg  Mg22  1  0.10293400  0.04482500  0.67093100  1
  Mg  Mg23  1  0.72879900  0.95037500  0.67093100  1
  Mg  Mg24  1  0.67287000  0.78258800  0.75834300  1
  Mg  Mg25  1  0.83195300  0.25983600  0.74260100  1
  Mg  Mg26  1  0.41586700  0.74760000  0.64062500  1
  Mg  Mg27  1  0.16586700  0.99760000  0.55729200  1
  Mg  Mg28  1  0.91586700  0.24760000  0.64062500  1
  Mg  Mg29  1  0.91586700  0.74760000  0.64062500  1
  Mg  Mg30  1  0.66586700  0.99760000  0.55729200  1
  Mg  Mg31  1  0.41586700  0.24760000  0.64062500  1
  Mg  Mg32  1  0.59959600  0.04878700  0.61853500  1
  Mg  Mg33  1  0.91586700  0.99760000  0.60147200  1
  Mg  Mg34  1  0.23213700  0.94641200  0.61853500  1
  Mg  Mg35  1  0.23213700  0.44641200  0.66271500  1
  Mg  Mg36  1  0.41586700  0.99760000  0.51311100  1
  Mg  Mg37  1  0.59959600  0.54878700  0.66271500  1
  Mg  Mg38  1  0.41586700  0.49760000  0.55729200  1
  Mg  Mg39  1  0.91586700  0.49760000  0.55729200  1
  Mg  Mg40  1  0.83195300  0.75983600  0.53864900  1
  Mg  Mg41  1  0.67287000  0.28258800  0.52290700  1
  Mg  Mg42  1  0.72879900  0.45037500  0.61031900  1
  Mg  Mg43  1  0.10293400  0.54482500  0.61031900  1
  Mg  Mg44  1  0.15886300  0.71261100  0.52290700  1
  Mg  Mg45  1  0.99978000  0.23536400  0.53864900  1
  Mg  Mg46  1  0.49978000  0.23536400  0.57593500  1
  Mg  Mg47  1  0.65886300  0.71261100  0.59167600  1
  Mg  Mg48  1  0.60293400  0.54482500  0.50426400  1
  Mg  Mg49  1  0.22879900  0.45037500  0.50426400  1
  Mg  Mg50  1  0.17287000  0.28258800  0.59167600  1
  Mg  Mg51  1  0.33195300  0.75983600  0.57593500  1
  Mg  Mg52  1  0.91586700  0.24760000  0.47395800  1
  Mg  Mg53  1  0.66586700  0.49760000  0.39062500  1
  Mg  Mg54  1  0.41586700  0.74760000  0.47395800  1
  Mg  Mg55  1  0.41586700  0.24760000  0.47395800  1
  Mg  Mg56  1  0.16586700  0.49760000  0.39062500  1
  Mg  Mg57  1  0.91586700  0.74760000  0.47395800  1
  Mg  Mg58  1  0.09959600  0.54878700  0.45186800  1
  Mg  Mg59  1  0.41586700  0.49760000  0.43480600  1
  Mg  Mg60  1  0.73213700  0.44641200  0.45186800  1
  Mg  Mg61  1  0.73213700  0.94641200  0.49604900  1
  Mg  Mg62  1  0.91586700  0.49760000  0.34644400  1
  Mg  Mg63  1  0.09959600  0.04878700  0.49604900  1
  Mg  Mg64  1  0.91586700  0.99760000  0.39062500  1
  Mg  Mg65  1  0.41586700  0.99760000  0.39062500  1
  Mg  Mg66  1  0.33195300  0.25983600  0.37198200  1
  Mg  Mg67  1  0.17287000  0.78258800  0.35624000  1
  Mg  Mg68  1  0.22879900  0.95037500  0.44365200  1
  Mg  Mg69  1  0.60293400  0.04482500  0.44365200  1
  Mg  Mg70  1  0.65886300  0.21261100  0.35624000  1
  Mg  Mg71  1  0.49978000  0.73536400  0.37198200  1
  Mg  Mg72  1  0.99978000  0.73536400  0.40926800  1
  Mg  Mg73  1  0.15886300  0.21261100  0.42501000  1
  Mg  Mg74  1  0.10293400  0.04482500  0.33759800  1
  Mg  Mg75  1  0.72879900  0.95037500  0.33759800  1
  Mg  Mg76  1  0.67287000  0.78258800  0.42501000  1
  Mg  Mg77  1  0.83195300  0.25983600  0.40926800  1
  Mg  Mg78  1  0.41586700  0.74760000  0.30729200  1
  Mg  Mg79  1  0.91586700  0.24760000  0.30729200  1
  Mg  Mg80  1  0.91586700  0.74760000  0.30729200  1
  Mg  Mg81  1  0.41586700  0.24760000  0.30729200  1
  Mg  Mg82  1  0.59959600  0.04878700  0.28520100  1
  Mg  Mg83  1  0.23213700  0.94641200  0.28520100  1
  Mg  Mg84  1  0.23213700  0.44641200  0.32938200  1
  Mg  Mg85  1  0.59959600  0.54878700  0.32938200  1
  Ir  Ir86  1  0.32954100  0.73862400  0.75273300  1
  Ir  Ir87  1  0.91586700  0.49760000  0.83307500  1
  Ir  Ir88  1  0.50219200  0.25657600  0.75273300  1
  Ir  Ir89  1  0.00219200  0.25657600  0.69518300  1
  Ir  Ir90  1  0.91586700  0.99760000  0.78150900  1
  Ir  Ir91  1  0.82954100  0.73862400  0.69518300  1
  Ir  Ir92  1  0.82954100  0.23862400  0.58606700  1
  Ir  Ir93  1  0.41586700  0.99760000  0.66640800  1
  Ir  Ir94  1  0.00219200  0.75657600  0.58606700  1
  Ir  Ir95  1  0.50219200  0.75657600  0.52851700  1
  Ir  Ir96  1  0.41586700  0.49760000  0.61484200  1
  Ir  Ir97  1  0.32954100  0.23862400  0.52851700  1
  Ir  Ir98  1  0.32954100  0.73862400  0.41940000  1
  Ir  Ir99  1  0.91586700  0.49760000  0.49974100  1
  Ir  Ir100  1  0.50219200  0.25657600  0.41940000  1
  Ir  Ir101  1  0.00219200  0.25657600  0.36185000  1
  Ir  Ir102  1  0.91586700  0.99760000  0.44817500  1
  Ir  Ir103  1  0.82954100  0.73862400  0.36185000  1
  Ir  Ir104  1  0.41586700  0.99760000  0.33307500  1
  Ir  Ir105  1  0.41586700  0.49760000  0.28150900  1
