# generated using pymatgen
data_Ce20Mg183
_symmetry_space_group_name_H-M   'P 1'
_cell_length_a   14.43775526
_cell_length_b   14.43775501
_cell_length_c   45.98188600
_cell_angle_alpha   89.14134599
_cell_angle_beta   90.85865399
_cell_angle_gamma   103.42087140
_symmetry_Int_Tables_number   1
_chemical_formula_structural   Ce20Mg183
_chemical_formula_sum   'Ce20 Mg183'
_cell_volume   9321.41888714
_cell_formula_units_Z   1
loop_
 _symmetry_equiv_pos_site_id
 _symmetry_equiv_pos_as_xyz
  1  'x, y, z'
loop_
 _atom_site_type_symbol
 _atom_site_label
 _atom_site_symmetry_multiplicity
 _atom_site_fract_x
 _atom_site_fract_y
 _atom_site_fract_z
 _atom_site_occupancy
  Ce  Ce0  1  0.12852100  0.87147900  0.24210500  1
  Ce  Ce1  1  0.32852100  0.67147900  0.29210500  1
  Ce  Ce2  1  0.79518800  0.53814600  0.24210500  1
  Ce  Ce3  1  0.66185400  0.00481200  0.29210500  1
  Ce  Ce4  1  0.52852100  0.47147900  0.34210500  1
  Ce  Ce5  1  0.72852100  0.27147900  0.39210500  1
  Ce  Ce6  1  0.19518800  0.13814600  0.34210500  1
  Ce  Ce7  1  0.06185400  0.60481200  0.39210500  1
  Ce  Ce8  1  0.92852100  0.07147900  0.44210500  1
  Ce  Ce9  1  0.12852100  0.87147900  0.49210500  1
  Ce  Ce10  1  0.59518800  0.73814600  0.44210500  1
  Ce  Ce11  1  0.46185400  0.20481200  0.49210500  1
  Ce  Ce12  1  0.32852100  0.67147900  0.54210500  1
  Ce  Ce13  1  0.52852100  0.47147900  0.59210500  1
  Ce  Ce14  1  0.99518800  0.33814600  0.54210500  1
  Ce  Ce15  1  0.86185400  0.80481200  0.59210500  1
  Ce  Ce16  1  0.72852100  0.27147900  0.64210500  1
  Ce  Ce17  1  0.92852100  0.07147900  0.69210500  1
  Ce  Ce18  1  0.39518800  0.93814600  0.64210500  1
  Ce  Ce19  1  0.26185400  0.40481200  0.69210500  1
  Mg  Mg20  1  0.02852100  0.47147900  0.21710500  1
  Mg  Mg21  1  0.52852100  0.97147900  0.21710500  1
  Mg  Mg22  1  0.85232900  0.30989100  0.21361200  1
  Mg  Mg23  1  0.87493700  0.80062300  0.21926400  1
  Mg  Mg24  1  0.70738100  0.13039900  0.21793000  1
  Mg  Mg25  1  0.53200700  0.79608000  0.25266300  1
  Mg  Mg26  1  0.05611200  0.27722100  0.30733600  1
  Mg  Mg27  1  0.52277900  0.14388800  0.25733600  1
  Mg  Mg28  1  0.18210500  0.14233500  0.21494600  1
  Mg  Mg29  1  0.71840100  0.92034200  0.22159700  1
  Mg  Mg30  1  0.64300200  0.32382800  0.21104000  1
  Mg  Mg31  1  0.06960100  0.09261900  0.26793000  1
  Mg  Mg32  1  0.27965800  0.08159900  0.27159700  1
  Mg  Mg33  1  0.41404000  0.61912900  0.22317100  1
  Mg  Mg34  1  0.05766500  0.61789500  0.26494600  1
  Mg  Mg35  1  0.34966100  0.81255900  0.21628000  1
  Mg  Mg36  1  0.89010900  0.94767100  0.26361200  1
  Mg  Mg37  1  0.56693300  0.59528700  0.27059800  1
  Mg  Mg38  1  0.93426300  0.39907000  0.27687400  1
  Mg  Mg39  1  0.39937700  0.92506300  0.26926400  1
  Mg  Mg40  1  0.52852100  0.47147900  0.21710500  1
  Mg  Mg41  1  0.40392000  0.26799300  0.30266300  1
  Mg  Mg42  1  0.92503500  0.74687800  0.28154800  1
  Mg  Mg43  1  0.40093000  0.26573700  0.22687400  1
  Mg  Mg44  1  0.20471300  0.63306700  0.22059800  1
  Mg  Mg45  1  0.58087100  0.38596000  0.27317100  1
  Mg  Mg46  1  0.05312200  0.27496500  0.23154800  1
  Mg  Mg47  1  0.38744100  0.45033900  0.26628000  1
  Mg  Mg48  1  0.33864100  0.02261500  0.21261400  1
  Mg  Mg49  1  0.72852100  0.77147900  0.26710500  1
  Mg  Mg50  1  0.87617200  0.15699800  0.26104000  1
  Mg  Mg51  1  0.17738500  0.46135900  0.26261400  1
  Mg  Mg52  1  0.72852100  0.27147900  0.26710500  1
  Mg  Mg53  1  0.22852100  0.27147900  0.26710500  1
  Mg  Mg54  1  0.42852100  0.07147900  0.31710500  1
  Mg  Mg55  1  0.92852100  0.57147900  0.31710500  1
  Mg  Mg56  1  0.25232900  0.90989100  0.31361200  1
  Mg  Mg57  1  0.27493700  0.40062300  0.31926400  1
  Mg  Mg58  1  0.10738100  0.73039900  0.31793000  1
  Mg  Mg59  1  0.93200700  0.39608000  0.35266300  1
  Mg  Mg60  1  0.45611200  0.87722100  0.40733600  1
  Mg  Mg61  1  0.92277900  0.74388800  0.35733600  1
  Mg  Mg62  1  0.58210500  0.74233500  0.31494600  1
  Mg  Mg63  1  0.11840100  0.52034200  0.32159700  1
  Mg  Mg64  1  0.04300200  0.92382800  0.31104000  1
  Mg  Mg65  1  0.46960100  0.69261900  0.36793000  1
  Mg  Mg66  1  0.67965800  0.68159900  0.37159700  1
  Mg  Mg67  1  0.81404000  0.21912900  0.32317100  1
  Mg  Mg68  1  0.45766500  0.21789500  0.36494600  1
  Mg  Mg69  1  0.74966100  0.41255900  0.31628000  1
  Mg  Mg70  1  0.29010900  0.54767100  0.36361200  1
  Mg  Mg71  1  0.96693300  0.19528700  0.37059800  1
  Mg  Mg72  1  0.33426300  0.99907000  0.37687400  1
  Mg  Mg73  1  0.79937700  0.52506300  0.36926400  1
  Mg  Mg74  1  0.92852100  0.07147900  0.31710500  1
  Mg  Mg75  1  0.80392000  0.86799300  0.40266300  1
  Mg  Mg76  1  0.32503500  0.34687800  0.38154800  1
  Mg  Mg77  1  0.80093000  0.86573700  0.32687400  1
  Mg  Mg78  1  0.60471300  0.23306700  0.32059800  1
  Mg  Mg79  1  0.98087100  0.98596000  0.37317100  1
  Mg  Mg80  1  0.45312200  0.87496500  0.33154800  1
  Mg  Mg81  1  0.78744100  0.05033900  0.36628000  1
  Mg  Mg82  1  0.73864100  0.62261500  0.31261400  1
  Mg  Mg83  1  0.12852100  0.37147900  0.36710500  1
  Mg  Mg84  1  0.27617200  0.75699800  0.36104000  1
  Mg  Mg85  1  0.57738500  0.06135900  0.36261400  1
  Mg  Mg86  1  0.12852100  0.87147900  0.36710500  1
  Mg  Mg87  1  0.62852100  0.87147900  0.36710500  1
  Mg  Mg88  1  0.82852100  0.67147900  0.41710500  1
  Mg  Mg89  1  0.32852100  0.17147900  0.41710500  1
  Mg  Mg90  1  0.65232900  0.50989100  0.41361200  1
  Mg  Mg91  1  0.67493700  0.00062300  0.41926400  1
  Mg  Mg92  1  0.50738100  0.33039900  0.41793000  1
  Mg  Mg93  1  0.33200700  0.99608000  0.45266300  1
  Mg  Mg94  1  0.85611200  0.47722100  0.50733600  1
  Mg  Mg95  1  0.32277900  0.34388800  0.45733600  1
  Mg  Mg96  1  0.98210500  0.34233500  0.41494600  1
  Mg  Mg97  1  0.51840100  0.12034200  0.42159700  1
  Mg  Mg98  1  0.44300200  0.52382800  0.41104000  1
  Mg  Mg99  1  0.86960100  0.29261900  0.46793000  1
  Mg  Mg100  1  0.07965800  0.28159900  0.47159700  1
  Mg  Mg101  1  0.21404000  0.81912900  0.42317100  1
  Mg  Mg102  1  0.85766500  0.81789500  0.46494600  1
  Mg  Mg103  1  0.14966100  0.01255900  0.41628000  1
  Mg  Mg104  1  0.69010900  0.14767100  0.46361200  1
  Mg  Mg105  1  0.36693300  0.79528700  0.47059800  1
  Mg  Mg106  1  0.73426300  0.59907000  0.47687400  1
  Mg  Mg107  1  0.19937700  0.12506300  0.46926400  1
  Mg  Mg108  1  0.32852100  0.67147900  0.41710500  1
  Mg  Mg109  1  0.20392000  0.46799300  0.50266300  1
  Mg  Mg110  1  0.72503500  0.94687800  0.48154800  1
  Mg  Mg111  1  0.20093000  0.46573700  0.42687400  1
  Mg  Mg112  1  0.00471300  0.83306700  0.42059800  1
  Mg  Mg113  1  0.38087100  0.58596000  0.47317100  1
  Mg  Mg114  1  0.85312200  0.47496500  0.43154800  1
  Mg  Mg115  1  0.18744100  0.65033900  0.46628000  1
  Mg  Mg116  1  0.13864100  0.22261500  0.41261400  1
  Mg  Mg117  1  0.52852100  0.97147900  0.46710500  1
  Mg  Mg118  1  0.67617200  0.35699800  0.46104000  1
  Mg  Mg119  1  0.97738500  0.66135900  0.46261400  1
  Mg  Mg120  1  0.52852100  0.47147900  0.46710500  1
  Mg  Mg121  1  0.02852100  0.47147900  0.46710500  1
  Mg  Mg122  1  0.22852100  0.27147900  0.51710500  1
  Mg  Mg123  1  0.72852100  0.77147900  0.51710500  1
  Mg  Mg124  1  0.05232900  0.10989100  0.51361200  1
  Mg  Mg125  1  0.07493700  0.60062300  0.51926400  1
  Mg  Mg126  1  0.90738100  0.93039900  0.51793000  1
  Mg  Mg127  1  0.73200700  0.59608000  0.55266300  1
  Mg  Mg128  1  0.25611200  0.07722100  0.60733600  1
  Mg  Mg129  1  0.72277900  0.94388800  0.55733600  1
  Mg  Mg130  1  0.38210500  0.94233500  0.51494600  1
  Mg  Mg131  1  0.91840100  0.72034200  0.52159700  1
  Mg  Mg132  1  0.84300200  0.12382800  0.51104000  1
  Mg  Mg133  1  0.26960100  0.89261900  0.56793000  1
  Mg  Mg134  1  0.47965800  0.88159900  0.57159700  1
  Mg  Mg135  1  0.61404000  0.41912900  0.52317100  1
  Mg  Mg136  1  0.25766500  0.41789500  0.56494600  1
  Mg  Mg137  1  0.54966100  0.61255900  0.51628000  1
  Mg  Mg138  1  0.09010900  0.74767100  0.56361200  1
  Mg  Mg139  1  0.76693300  0.39528700  0.57059800  1
  Mg  Mg140  1  0.13426300  0.19907000  0.57687400  1
  Mg  Mg141  1  0.59937700  0.72506300  0.56926400  1
  Mg  Mg142  1  0.72852100  0.27147900  0.51710500  1
  Mg  Mg143  1  0.60392000  0.06799300  0.60266300  1
  Mg  Mg144  1  0.12503500  0.54687800  0.58154800  1
  Mg  Mg145  1  0.60093000  0.06573700  0.52687400  1
  Mg  Mg146  1  0.40471300  0.43306700  0.52059800  1
  Mg  Mg147  1  0.78087100  0.18596000  0.57317100  1
  Mg  Mg148  1  0.25312200  0.07496500  0.53154800  1
  Mg  Mg149  1  0.58744100  0.25033900  0.56628000  1
  Mg  Mg150  1  0.53864100  0.82261500  0.51261400  1
  Mg  Mg151  1  0.92852100  0.57147900  0.56710500  1
  Mg  Mg152  1  0.07617200  0.95699800  0.56104000  1
  Mg  Mg153  1  0.37738500  0.26135900  0.56261400  1
  Mg  Mg154  1  0.92852100  0.07147900  0.56710500  1
  Mg  Mg155  1  0.42852100  0.07147900  0.56710500  1
  Mg  Mg156  1  0.62852100  0.87147900  0.61710500  1
  Mg  Mg157  1  0.12852100  0.37147900  0.61710500  1
  Mg  Mg158  1  0.45232900  0.70989100  0.61361200  1
  Mg  Mg159  1  0.47493700  0.20062300  0.61926400  1
  Mg  Mg160  1  0.30738100  0.53039900  0.61793000  1
  Mg  Mg161  1  0.13200700  0.19608000  0.65266300  1
  Mg  Mg162  1  0.65611200  0.67722100  0.70733600  1
  Mg  Mg163  1  0.12277900  0.54388800  0.65733600  1
  Mg  Mg164  1  0.78210500  0.54233500  0.61494600  1
  Mg  Mg165  1  0.31840100  0.32034200  0.62159700  1
  Mg  Mg166  1  0.24300200  0.72382800  0.61104000  1
  Mg  Mg167  1  0.66960100  0.49261900  0.66793000  1
  Mg  Mg168  1  0.87965800  0.48159900  0.67159700  1
  Mg  Mg169  1  0.01404000  0.01912900  0.62317100  1
  Mg  Mg170  1  0.65766500  0.01789500  0.66494600  1
  Mg  Mg171  1  0.94966100  0.21255900  0.61628000  1
  Mg  Mg172  1  0.49010900  0.34767100  0.66361200  1
  Mg  Mg173  1  0.16693300  0.99528700  0.67059800  1
  Mg  Mg174  1  0.53426300  0.79907000  0.67687400  1
  Mg  Mg175  1  0.99937700  0.32506300  0.66926400  1
  Mg  Mg176  1  0.12852100  0.87147900  0.61710500  1
  Mg  Mg177  1  0.00392000  0.66799300  0.70266300  1
  Mg  Mg178  1  0.52503500  0.14687800  0.68154800  1
  Mg  Mg179  1  0.00093000  0.66573700  0.62687400  1
  Mg  Mg180  1  0.80471300  0.03306700  0.62059800  1
  Mg  Mg181  1  0.18087100  0.78596000  0.67317100  1
  Mg  Mg182  1  0.65312200  0.67496500  0.63154800  1
  Mg  Mg183  1  0.98744100  0.85033900  0.66628000  1
  Mg  Mg184  1  0.93864100  0.42261500  0.61261400  1
  Mg  Mg185  1  0.32852100  0.17147900  0.66710500  1
  Mg  Mg186  1  0.47617200  0.55699800  0.66104000  1
  Mg  Mg187  1  0.77738500  0.86135900  0.66261400  1
  Mg  Mg188  1  0.32852100  0.67147900  0.66710500  1
  Mg  Mg189  1  0.82852100  0.67147900  0.66710500  1
  Mg  Mg190  1  0.02852100  0.47147900  0.71710500  1
  Mg  Mg191  1  0.52852100  0.97147900  0.71710500  1
  Mg  Mg192  1  0.85232900  0.30989100  0.71361200  1
  Mg  Mg193  1  0.87493700  0.80062300  0.71926400  1
  Mg  Mg194  1  0.70738100  0.13039900  0.71793000  1
  Mg  Mg195  1  0.18210500  0.14233500  0.71494600  1
  Mg  Mg196  1  0.71840100  0.92034200  0.72159700  1
  Mg  Mg197  1  0.64300200  0.32382800  0.71104000  1
  Mg  Mg198  1  0.41404000  0.61912900  0.72317100  1
  Mg  Mg199  1  0.34966100  0.81255900  0.71628000  1
  Mg  Mg200  1  0.52852100  0.47147900  0.71710500  1
  Mg  Mg201  1  0.20471300  0.63306700  0.72059800  1
  Mg  Mg202  1  0.33864100  0.02261500  0.71261400  1
