# generated using pymatgen
data_Mg10Cd3
_symmetry_space_group_name_H-M   'P 1'
_cell_length_a   6.30670400
_cell_length_b   8.12497382
_cell_length_c   44.92856900
_cell_angle_alpha   93.38299134
_cell_angle_beta   90.00000000
_cell_angle_gamma   67.16329262
_symmetry_Int_Tables_number   1
_chemical_formula_structural   Mg10Cd3
_chemical_formula_sum   'Mg40 Cd12'
_cell_volume   2117.40690686
_cell_formula_units_Z   4
loop_
 _symmetry_equiv_pos_site_id
 _symmetry_equiv_pos_as_xyz
  1  'x, y, z'
loop_
 _atom_site_type_symbol
 _atom_site_label
 _atom_site_symmetry_multiplicity
 _atom_site_fract_x
 _atom_site_fract_y
 _atom_site_fract_z
 _atom_site_occupancy
  Mg  Mg0  1  0.16877900  0.16634200  0.26399700  1
  Mg  Mg1  1  0.66488000  0.16634200  0.26399700  1
  Mg  Mg2  1  0.45589700  0.58430800  0.27766900  1
  Mg  Mg3  1  0.95979500  0.58430800  0.27766900  1
  Mg  Mg4  1  0.91877900  0.66634200  0.34733100  1
  Mg  Mg5  1  0.54085400  0.91829100  0.30533900  1
  Mg  Mg6  1  0.41488000  0.66634200  0.34733100  1
  Mg  Mg7  1  0.20589700  0.08430800  0.36100300  1
  Mg  Mg8  1  0.83382100  0.33235900  0.31966100  1
  Mg  Mg9  1  0.70979500  0.08430800  0.36100300  1
  Mg  Mg10  1  0.66877900  0.16634200  0.43066400  1
  Mg  Mg11  1  0.29085400  0.41829100  0.38867200  1
  Mg  Mg12  1  0.16488000  0.16634200  0.43066400  1
  Mg  Mg13  1  0.95589700  0.58430800  0.44433600  1
  Mg  Mg14  1  0.58382100  0.83235900  0.40299400  1
  Mg  Mg15  1  0.45979500  0.58430800  0.44433600  1
  Mg  Mg16  1  0.41877900  0.66634200  0.51399700  1
  Mg  Mg17  1  0.04085400  0.91829100  0.47200600  1
  Mg  Mg18  1  0.91488000  0.66634200  0.51399700  1
  Mg  Mg19  1  0.70589700  0.08430800  0.52766900  1
  Mg  Mg20  1  0.33382100  0.33235900  0.48632800  1
  Mg  Mg21  1  0.20979500  0.08430800  0.52766900  1
  Mg  Mg22  1  0.16877900  0.16634200  0.59733100  1
  Mg  Mg23  1  0.79085400  0.41829100  0.55533900  1
  Mg  Mg24  1  0.66488000  0.16634200  0.59733100  1
  Mg  Mg25  1  0.45589700  0.58430800  0.61100300  1
  Mg  Mg26  1  0.08382100  0.83235900  0.56966100  1
  Mg  Mg27  1  0.95979500  0.58430800  0.61100300  1
  Mg  Mg28  1  0.91877900  0.66634200  0.68066400  1
  Mg  Mg29  1  0.54085400  0.91829100  0.63867200  1
  Mg  Mg30  1  0.41488000  0.66634200  0.68066400  1
  Mg  Mg31  1  0.20589700  0.08430800  0.69433600  1
  Mg  Mg32  1  0.83382100  0.33235900  0.65299400  1
  Mg  Mg33  1  0.70979500  0.08430800  0.69433600  1
  Mg  Mg34  1  0.66877900  0.16634200  0.76399700  1
  Mg  Mg35  1  0.29085400  0.41829100  0.72200600  1
  Mg  Mg36  1  0.16488000  0.16634200  0.76399700  1
  Mg  Mg37  1  0.95589700  0.58430800  0.77766900  1
  Mg  Mg38  1  0.58382100  0.83235900  0.73632800  1
  Mg  Mg39  1  0.45979500  0.58430800  0.77766900  1
  Cd  Cd40  1  0.04150400  0.91699200  0.30555600  1
  Cd  Cd41  1  0.33317100  0.33365800  0.31944400  1
  Cd  Cd42  1  0.79150400  0.41699200  0.38888900  1
  Cd  Cd43  1  0.08317100  0.83365800  0.40277800  1
  Cd  Cd44  1  0.54150400  0.91699200  0.47222200  1
  Cd  Cd45  1  0.83317100  0.33365800  0.48611100  1
  Cd  Cd46  1  0.29150400  0.41699200  0.55555600  1
  Cd  Cd47  1  0.58317100  0.83365800  0.56944400  1
  Cd  Cd48  1  0.04150400  0.91699200  0.63888900  1
  Cd  Cd49  1  0.33317100  0.33365800  0.65277800  1
  Cd  Cd50  1  0.79150400  0.41699200  0.72222200  1
  Cd  Cd51  1  0.08317100  0.83365800  0.73611100  1
