# generated using pymatgen
data_La5Mg41
_symmetry_space_group_name_H-M   'P 1'
_cell_length_a   10.38875242
_cell_length_b   10.09623600
_cell_length_c   45.28352000
_cell_angle_alpha   90.00000000
_cell_angle_beta   96.58677761
_cell_angle_gamma   90.00000000
_symmetry_Int_Tables_number   1
_chemical_formula_structural   La5Mg41
_chemical_formula_sum   'La10 Mg82'
_cell_volume   4718.31467942
_cell_formula_units_Z   2
loop_
 _symmetry_equiv_pos_site_id
 _symmetry_equiv_pos_as_xyz
  1  'x, y, z'
loop_
 _atom_site_type_symbol
 _atom_site_label
 _atom_site_symmetry_multiplicity
 _atom_site_fract_x
 _atom_site_fract_y
 _atom_site_fract_z
 _atom_site_occupancy
  La  La0  1  0.69733400  0.25000000  0.35789500  1
  La  La1  1  0.69733400  0.75000000  0.35789500  1
  La  La2  1  0.23066700  0.75000000  0.42456100  1
  La  La3  1  0.76400000  0.25000000  0.49122800  1
  La  La4  1  0.29733400  0.25000000  0.55789500  1
  La  La5  1  0.29733400  0.75000000  0.55789500  1
  La  La6  1  0.83066700  0.75000000  0.62456100  1
  La  La7  1  0.36400000  0.25000000  0.69122800  1
  La  La8  1  0.89733400  0.25000000  0.75789500  1
  La  La9  1  0.89733400  0.75000000  0.75789500  1
  Mg  Mg10  1  0.43777700  0.02089500  0.32545000  1
  Mg  Mg11  1  0.92444600  0.02089500  0.32545000  1
  Mg  Mg12  1  0.47022200  0.52089500  0.39033900  1
  Mg  Mg13  1  0.19733400  0.50000000  0.35789500  1
  Mg  Mg14  1  0.19733400  0.00000000  0.35789500  1
  Mg  Mg15  1  0.34816900  0.75000000  0.35099600  1
  Mg  Mg16  1  0.35506700  0.25000000  0.36479300  1
  Mg  Mg17  1  0.04649900  0.25000000  0.36479300  1
  Mg  Mg18  1  0.03960000  0.75000000  0.35099600  1
  Mg  Mg19  1  0.95689100  0.97910500  0.39033900  1
  Mg  Mg20  1  0.47022200  0.97910500  0.39033900  1
  Mg  Mg21  1  0.92444600  0.47910500  0.32545000  1
  Mg  Mg22  1  0.43777700  0.47910500  0.32545000  1
  Mg  Mg23  1  0.95689100  0.52089500  0.39033900  1
  Mg  Mg24  1  0.03777700  0.02089500  0.52545000  1
  Mg  Mg25  1  0.72977800  0.02089500  0.42278400  1
  Mg  Mg26  1  0.52444600  0.02089500  0.52545000  1
  Mg  Mg27  1  0.07022200  0.52089500  0.59033900  1
  Mg  Mg28  1  0.76400000  0.59833400  0.49122800  1
  Mg  Mg29  1  0.23066700  0.09833400  0.42456100  1
  Mg  Mg30  1  0.23066700  0.40166600  0.42456100  1
  Mg  Mg31  1  0.76400000  0.90166600  0.49122800  1
  Mg  Mg32  1  0.79733400  0.50000000  0.55789500  1
  Mg  Mg33  1  0.49733400  0.00000000  0.45789500  1
  Mg  Mg34  1  0.99733400  0.00000000  0.45789500  1
  Mg  Mg35  1  0.99733400  0.50000000  0.45789500  1
  Mg  Mg36  1  0.49733400  0.50000000  0.45789500  1
  Mg  Mg37  1  0.79733400  0.00000000  0.55789500  1
  Mg  Mg38  1  0.94816900  0.75000000  0.55099600  1
  Mg  Mg39  1  0.53145300  0.25000000  0.42358900  1
  Mg  Mg40  1  0.11405000  0.25000000  0.48530200  1
  Mg  Mg41  1  0.88061800  0.75000000  0.43048700  1
  Mg  Mg42  1  0.46321500  0.75000000  0.49220100  1
  Mg  Mg43  1  0.95506700  0.25000000  0.56479300  1
  Mg  Mg44  1  0.40802500  0.25000000  0.48530200  1
  Mg  Mg45  1  0.64649900  0.25000000  0.56479300  1
  Mg  Mg46  1  0.92890800  0.25000000  0.42358900  1
  Mg  Mg47  1  0.06575900  0.75000000  0.49220100  1
  Mg  Mg48  1  0.63960000  0.75000000  0.55099600  1
  Mg  Mg49  1  0.58664200  0.75000000  0.43048700  1
  Mg  Mg50  1  0.72977800  0.47910500  0.42278400  1
  Mg  Mg51  1  0.55689100  0.97910500  0.59033900  1
  Mg  Mg52  1  0.07022200  0.97910500  0.59033900  1
  Mg  Mg53  1  0.52444600  0.47910500  0.52545000  1
  Mg  Mg54  1  0.03777700  0.47910500  0.52545000  1
  Mg  Mg55  1  0.26488900  0.52089500  0.49300600  1
  Mg  Mg56  1  0.55689100  0.52089500  0.59033900  1
  Mg  Mg57  1  0.26488900  0.97910500  0.49300600  1
  Mg  Mg58  1  0.63777700  0.02089500  0.72545000  1
  Mg  Mg59  1  0.32977800  0.02089500  0.62278400  1
  Mg  Mg60  1  0.12444600  0.02089500  0.72545000  1
  Mg  Mg61  1  0.67022200  0.52089500  0.79033900  1
  Mg  Mg62  1  0.36400000  0.59833400  0.69122800  1
  Mg  Mg63  1  0.83066700  0.09833400  0.62456100  1
  Mg  Mg64  1  0.83066700  0.40166600  0.62456100  1
  Mg  Mg65  1  0.36400000  0.90166600  0.69122800  1
  Mg  Mg66  1  0.39733400  0.50000000  0.75789500  1
  Mg  Mg67  1  0.09733400  0.00000000  0.65789500  1
  Mg  Mg68  1  0.59733400  0.00000000  0.65789500  1
  Mg  Mg69  1  0.59733400  0.50000000  0.65789500  1
  Mg  Mg70  1  0.09733400  0.50000000  0.65789500  1
  Mg  Mg71  1  0.39733400  0.00000000  0.75789500  1
  Mg  Mg72  1  0.54816900  0.75000000  0.75099600  1
  Mg  Mg73  1  0.13145300  0.25000000  0.62358900  1
  Mg  Mg74  1  0.71405000  0.25000000  0.68530200  1
  Mg  Mg75  1  0.48061800  0.75000000  0.63048700  1
  Mg  Mg76  1  0.06321500  0.75000000  0.69220100  1
  Mg  Mg77  1  0.55506700  0.25000000  0.76479300  1
  Mg  Mg78  1  0.00802500  0.25000000  0.68530200  1
  Mg  Mg79  1  0.24649900  0.25000000  0.76479300  1
  Mg  Mg80  1  0.52890800  0.25000000  0.62358900  1
  Mg  Mg81  1  0.66575900  0.75000000  0.69220100  1
  Mg  Mg82  1  0.23960000  0.75000000  0.75099600  1
  Mg  Mg83  1  0.18664200  0.75000000  0.63048700  1
  Mg  Mg84  1  0.32977800  0.47910500  0.62278400  1
  Mg  Mg85  1  0.15689100  0.97910500  0.79033900  1
  Mg  Mg86  1  0.67022200  0.97910500  0.79033900  1
  Mg  Mg87  1  0.12444600  0.47910500  0.72545000  1
  Mg  Mg88  1  0.63777700  0.47910500  0.72545000  1
  Mg  Mg89  1  0.86488900  0.52089500  0.69300600  1
  Mg  Mg90  1  0.15689100  0.52089500  0.79033900  1
  Mg  Mg91  1  0.86488900  0.97910500  0.69300600  1
