# generated using pymatgen
data_Mg17Zn30
_symmetry_space_group_name_H-M   'P 1'
_cell_length_a   13.26606209
_cell_length_b   14.70723619
_cell_length_c   50.02254400
_cell_angle_alpha   94.04592358
_cell_angle_beta   85.51984715
_cell_angle_gamma   104.27395804
_symmetry_Int_Tables_number   1
_chemical_formula_structural   Mg17Zn30
_chemical_formula_sum   'Mg102 Zn180'
_cell_volume   9416.24948960
_cell_formula_units_Z   6
loop_
 _symmetry_equiv_pos_site_id
 _symmetry_equiv_pos_as_xyz
  1  'x, y, z'
loop_
 _atom_site_type_symbol
 _atom_site_label
 _atom_site_symmetry_multiplicity
 _atom_site_fract_x
 _atom_site_fract_y
 _atom_site_fract_z
 _atom_site_occupancy
  Mg  Mg0  1  0.87299300  0.60215500  0.29202800  1
  Mg  Mg1  1  0.93113800  0.39784500  0.29524500  1
  Mg  Mg2  1  0.61349100  0.89982000  0.33121600  1
  Mg  Mg3  1  0.91743000  0.71342500  0.34750700  1
  Mg  Mg4  1  0.43181000  0.35231700  0.37367100  1
  Mg  Mg5  1  0.69195400  0.95641800  0.38762100  1
  Mg  Mg6  1  0.77299300  0.60215500  0.39202800  1
  Mg  Mg7  1  0.44549000  0.02805300  0.32196300  1
  Mg  Mg8  1  0.53451100  0.57654400  0.37972700  1
  Mg  Mg9  1  0.01217700  0.04358200  0.29965200  1
  Mg  Mg10  1  0.51317900  0.67618400  0.32588700  1
  Mg  Mg11  1  0.83113800  0.39784500  0.39524500  1
  Mg  Mg12  1  0.27232100  0.64768300  0.31360100  1
  Mg  Mg13  1  0.19095200  0.32381600  0.36138600  1
  Mg  Mg14  1  0.86485400  0.90491200  0.34445700  1
  Mg  Mg15  1  0.54955200  0.25117100  0.32774600  1
  Mg  Mg16  1  0.15457900  0.74882900  0.35952600  1
  Mg  Mg17  1  0.16962000  0.42345600  0.30754600  1
  Mg  Mg18  1  0.09064000  0.10018000  0.35605600  1
  Mg  Mg19  1  0.25864100  0.97194700  0.36530900  1
  Mg  Mg20  1  0.78670200  0.28657500  0.33976600  1
  Mg  Mg21  1  0.83927700  0.09508800  0.34281600  1
  Mg  Mg22  1  0.51349100  0.89982000  0.43121600  1
  Mg  Mg23  1  0.81743000  0.71342500  0.44750700  1
  Mg  Mg24  1  0.33181000  0.35231700  0.47367100  1
  Mg  Mg25  1  0.59195400  0.95641800  0.48762100  1
  Mg  Mg26  1  0.67299300  0.60215500  0.49202800  1
  Mg  Mg27  1  0.34549000  0.02805300  0.42196300  1
  Mg  Mg28  1  0.43451100  0.57654400  0.47972700  1
  Mg  Mg29  1  0.91217700  0.04358200  0.39965200  1
  Mg  Mg30  1  0.41317900  0.67618400  0.42588700  1
  Mg  Mg31  1  0.73113800  0.39784500  0.49524500  1
  Mg  Mg32  1  0.17232100  0.64768300  0.41360100  1
  Mg  Mg33  1  0.09095200  0.32381600  0.46138600  1
  Mg  Mg34  1  0.76485400  0.90491200  0.44445700  1
  Mg  Mg35  1  0.44955200  0.25117100  0.42774600  1
  Mg  Mg36  1  0.05457900  0.74882900  0.45952600  1
  Mg  Mg37  1  0.06962000  0.42345600  0.40754600  1
  Mg  Mg38  1  0.99064000  0.10018000  0.45605600  1
  Mg  Mg39  1  0.15864100  0.97194700  0.46530900  1
  Mg  Mg40  1  0.68670200  0.28657500  0.43976600  1
  Mg  Mg41  1  0.73927700  0.09508800  0.44281600  1
  Mg  Mg42  1  0.41349100  0.89982000  0.53121600  1
  Mg  Mg43  1  0.71743000  0.71342500  0.54750700  1
  Mg  Mg44  1  0.23181000  0.35231700  0.57367100  1
  Mg  Mg45  1  0.49195400  0.95641800  0.58762100  1
  Mg  Mg46  1  0.57299300  0.60215500  0.59202800  1
  Mg  Mg47  1  0.24549000  0.02805300  0.52196300  1
  Mg  Mg48  1  0.33451100  0.57654400  0.57972700  1
  Mg  Mg49  1  0.81217700  0.04358200  0.49965200  1
  Mg  Mg50  1  0.31317900  0.67618400  0.52588700  1
  Mg  Mg51  1  0.63113800  0.39784500  0.59524500  1
  Mg  Mg52  1  0.07232100  0.64768300  0.51360100  1
  Mg  Mg53  1  0.99095200  0.32381600  0.56138600  1
  Mg  Mg54  1  0.66485400  0.90491200  0.54445700  1
  Mg  Mg55  1  0.34955200  0.25117100  0.52774600  1
  Mg  Mg56  1  0.95457900  0.74882900  0.55952600  1
  Mg  Mg57  1  0.96962000  0.42345600  0.50754600  1
  Mg  Mg58  1  0.89064000  0.10018000  0.55605600  1
  Mg  Mg59  1  0.05864100  0.97194700  0.56530900  1
  Mg  Mg60  1  0.58670200  0.28657500  0.53976600  1
  Mg  Mg61  1  0.63927700  0.09508800  0.54281600  1
  Mg  Mg62  1  0.31349100  0.89982000  0.63121600  1
  Mg  Mg63  1  0.61743000  0.71342500  0.64750700  1
  Mg  Mg64  1  0.13181000  0.35231700  0.67367100  1
  Mg  Mg65  1  0.39195400  0.95641800  0.68762100  1
  Mg  Mg66  1  0.47299300  0.60215500  0.69202800  1
  Mg  Mg67  1  0.14549000  0.02805300  0.62196300  1
  Mg  Mg68  1  0.23451100  0.57654400  0.67972700  1
  Mg  Mg69  1  0.71217700  0.04358200  0.59965200  1
  Mg  Mg70  1  0.21317900  0.67618400  0.62588700  1
  Mg  Mg71  1  0.53113800  0.39784500  0.69524500  1
  Mg  Mg72  1  0.97232100  0.64768300  0.61360100  1
  Mg  Mg73  1  0.89095200  0.32381600  0.66138600  1
  Mg  Mg74  1  0.56485400  0.90491200  0.64445700  1
  Mg  Mg75  1  0.24955200  0.25117100  0.62774600  1
  Mg  Mg76  1  0.85457900  0.74882900  0.65952600  1
  Mg  Mg77  1  0.86962000  0.42345600  0.60754600  1
  Mg  Mg78  1  0.79064000  0.10018000  0.65605600  1
  Mg  Mg79  1  0.95864100  0.97194700  0.66530900  1
  Mg  Mg80  1  0.48670200  0.28657500  0.63976600  1
  Mg  Mg81  1  0.53927700  0.09508800  0.64281600  1
  Mg  Mg82  1  0.21349100  0.89982000  0.73121600  1
  Mg  Mg83  1  0.51743000  0.71342500  0.74750700  1
  Mg  Mg84  1  0.03181000  0.35231700  0.77367100  1
  Mg  Mg85  1  0.29195400  0.95641800  0.78762100  1
  Mg  Mg86  1  0.37299300  0.60215500  0.79202800  1
  Mg  Mg87  1  0.04549000  0.02805300  0.72196300  1
  Mg  Mg88  1  0.13451100  0.57654400  0.77972700  1
  Mg  Mg89  1  0.61217700  0.04358200  0.69965200  1
  Mg  Mg90  1  0.11317900  0.67618400  0.72588700  1
  Mg  Mg91  1  0.43113800  0.39784500  0.79524500  1
  Mg  Mg92  1  0.87232100  0.64768300  0.71360100  1
  Mg  Mg93  1  0.79095200  0.32381600  0.76138600  1
  Mg  Mg94  1  0.46485400  0.90491200  0.74445700  1
  Mg  Mg95  1  0.14955200  0.25117100  0.72774600  1
  Mg  Mg96  1  0.75457900  0.74882900  0.75952600  1
  Mg  Mg97  1  0.76962000  0.42345600  0.70754600  1
  Mg  Mg98  1  0.69064000  0.10018000  0.75605600  1
  Mg  Mg99  1  0.85864100  0.97194700  0.76530900  1
  Mg  Mg100  1  0.38670200  0.28657500  0.73976600  1
  Mg  Mg101  1  0.43927700  0.09508800  0.74281600  1
  Zn  Zn102  1  0.93596200  0.81738700  0.29549700  1
  Zn  Zn103  1  0.40206600  0.50000000  0.29363600  1
  Zn  Zn104  1  0.43105400  0.82447600  0.29552100  1
  Zn  Zn105  1  0.86816900  0.18261300  0.29177600  1
  Zn  Zn106  1  0.37307700  0.17552400  0.29175200  1
  Zn  Zn107  1  0.70840000  0.59229000  0.33650700  1
  Zn  Zn108  1  0.83596200  0.81738700  0.39549700  1
  Zn  Zn109  1  0.34032600  0.66285200  0.36896500  1
  Zn  Zn110  1  0.01450000  0.24831100  0.32593400  1
  Zn  Zn111  1  0.99621800  0.57676400  0.37804900  1
  Zn  Zn112  1  0.74316300  0.75046900  0.31190000  1
  Zn  Zn113  1  0.30206600  0.50000000  0.39363600  1
  Zn  Zn114  1  0.99573100  0.40771000  0.35076600  1
  Zn  Zn115  1  0.25836500  0.86290600  0.31230400  1
  Zn  Zn116  1  0.65691400  0.42312300  0.35984600  1
  Zn  Zn117  1  0.33105400  0.82447600  0.39552100  1
  Zn  Zn118  1  0.47785000  0.96319600  0.37666400  1
  Zn  Zn119  1  0.53190100  0.46639900  0.32674200  1
  Zn  Zn120  1  0.62099400  0.26762300  0.38352600  1
  Zn  Zn121  1  0.76816900  0.18261300  0.39177600  1
  Zn  Zn122  1  0.44576600  0.13709400  0.37496900  1
  Zn  Zn123  1  0.62686200  0.09965700  0.35713600  1
  Zn  Zn124  1  0.04721700  0.57687700  0.32742700  1
  Zn  Zn125  1  0.96096800  0.24953100  0.37537300  1
  Zn  Zn126  1  0.17223000  0.53360100  0.36053100  1
  Zn  Zn127  1  0.07726900  0.90034300  0.33013700  1
  Zn  Zn128  1  0.70791300  0.42323600  0.30922400  1
  Zn  Zn129  1  0.35206600  0.50000000  0.34363600  1
  Zn  Zn130  1  0.51377900  0.78453800  0.37904800  1
  Zn  Zn131  1  0.38003100  0.82500200  0.34503900  1
  Zn  Zn132  1  0.67803200  0.09783900  0.30860800  1
  Zn  Zn133  1  0.19035200  0.21546200  0.30822500  1
  Zn  Zn134  1  0.02609900  0.90216100  0.37866500  1
  Zn  Zn135  1  0.08313700  0.73237700  0.30374600  1
  Zn  Zn136  1  0.32410000  0.17499800  0.34223300  1
  Zn  Zn137  1  0.68963100  0.75168900  0.36133900  1
  Zn  Zn138  1  0.85206600  0.50000000  0.34363600  1
  Zn  Zn139  1  0.27307700  0.17552400  0.39175200  1
  Zn  Zn140  1  0.22628100  0.03680400  0.31060800  1
  Zn  Zn141  1  0.36380500  0.33714800  0.31830800  1
  Zn  Zn142  1  0.60840000  0.59229000  0.43650700  1
  Zn  Zn143  1  0.73596200  0.81738700  0.49549700  1
  Zn  Zn144  1  0.24032600  0.66285200  0.46896500  1
  Zn  Zn145  1  0.91450000  0.24831100  0.42593400  1
  Zn  Zn146  1  0.89621800  0.57676400  0.47804900  1
  Zn  Zn147  1  0.64316300  0.75046900  0.41190000  1
  Zn  Zn148  1  0.20206600  0.50000000  0.49363600  1
  Zn  Zn149  1  0.89573100  0.40771000  0.45076600  1
  Zn  Zn150  1  0.15836500  0.86290600  0.41230400  1
  Zn  Zn151  1  0.55691400  0.42312300  0.45984600  1
  Zn  Zn152  1  0.23105400  0.82447600  0.49552100  1
  Zn  Zn153  1  0.37785000  0.96319600  0.47666400  1
  Zn  Zn154  1  0.43190100  0.46639900  0.42674200  1
  Zn  Zn155  1  0.52099400  0.26762300  0.48352600  1
  Zn  Zn156  1  0.66816900  0.18261300  0.49177600  1
  Zn  Zn157  1  0.34576600  0.13709400  0.47496900  1
  Zn  Zn158  1  0.52686200  0.09965700  0.45713600  1
  Zn  Zn159  1  0.94721700  0.57687700  0.42742700  1
  Zn  Zn160  1  0.86096800  0.24953100  0.47537300  1
  Zn  Zn161  1  0.07223000  0.53360100  0.46053100  1
  Zn  Zn162  1  0.97726900  0.90034300  0.43013700  1
  Zn  Zn163  1  0.60791300  0.42323600  0.40922400  1
  Zn  Zn164  1  0.25206600  0.50000000  0.44363600  1
  Zn  Zn165  1  0.41377900  0.78453800  0.47904800  1
  Zn  Zn166  1  0.28003100  0.82500200  0.44503900  1
  Zn  Zn167  1  0.57803200  0.09783900  0.40860800  1
  Zn  Zn168  1  0.09035200  0.21546200  0.40822500  1
  Zn  Zn169  1  0.92609900  0.90216100  0.47866500  1
  Zn  Zn170  1  0.98313700  0.73237700  0.40374600  1
  Zn  Zn171  1  0.22410000  0.17499800  0.44223300  1
  Zn  Zn172  1  0.58963100  0.75168900  0.46133900  1
  Zn  Zn173  1  0.75206600  0.50000000  0.44363600  1
  Zn  Zn174  1  0.17307700  0.17552400  0.49175200  1
  Zn  Zn175  1  0.12628100  0.03680400  0.41060800  1
  Zn  Zn176  1  0.26380500  0.33714800  0.41830800  1
  Zn  Zn177  1  0.50840000  0.59229000  0.53650700  1
  Zn  Zn178  1  0.63596200  0.81738700  0.59549700  1
  Zn  Zn179  1  0.14032600  0.66285200  0.56896500  1
  Zn  Zn180  1  0.81450000  0.24831100  0.52593400  1
  Zn  Zn181  1  0.79621800  0.57676400  0.57804900  1
  Zn  Zn182  1  0.54316300  0.75046900  0.51190000  1
  Zn  Zn183  1  0.10206600  0.50000000  0.59363600  1
  Zn  Zn184  1  0.79573100  0.40771000  0.55076600  1
  Zn  Zn185  1  0.05836500  0.86290600  0.51230400  1
  Zn  Zn186  1  0.45691400  0.42312300  0.55984600  1
  Zn  Zn187  1  0.13105400  0.82447600  0.59552100  1
  Zn  Zn188  1  0.27785000  0.96319600  0.57666400  1
  Zn  Zn189  1  0.33190100  0.46639900  0.52674200  1
  Zn  Zn190  1  0.42099400  0.26762300  0.58352600  1
  Zn  Zn191  1  0.56816900  0.18261300  0.59177600  1
  Zn  Zn192  1  0.24576600  0.13709400  0.57496900  1
  Zn  Zn193  1  0.42686200  0.09965700  0.55713600  1
  Zn  Zn194  1  0.84721700  0.57687700  0.52742700  1
  Zn  Zn195  1  0.76096800  0.24953100  0.57537300  1
  Zn  Zn196  1  0.97223000  0.53360100  0.56053100  1
  Zn  Zn197  1  0.87726900  0.90034300  0.53013700  1
  Zn  Zn198  1  0.50791300  0.42323600  0.50922400  1
  Zn  Zn199  1  0.15206600  0.50000000  0.54363600  1
  Zn  Zn200  1  0.31377900  0.78453800  0.57904800  1
  Zn  Zn201  1  0.18003100  0.82500200  0.54503900  1
  Zn  Zn202  1  0.47803200  0.09783900  0.50860800  1
  Zn  Zn203  1  0.99035200  0.21546200  0.50822500  1
  Zn  Zn204  1  0.82609900  0.90216100  0.57866500  1
  Zn  Zn205  1  0.88313700  0.73237700  0.50374600  1
  Zn  Zn206  1  0.12410000  0.17499800  0.54223300  1
  Zn  Zn207  1  0.48963100  0.75168900  0.56133900  1
  Zn  Zn208  1  0.65206600  0.50000000  0.54363600  1
  Zn  Zn209  1  0.07307700  0.17552400  0.59175200  1
  Zn  Zn210  1  0.02628100  0.03680400  0.51060800  1
  Zn  Zn211  1  0.16380500  0.33714800  0.51830800  1
  Zn  Zn212  1  0.40840000  0.59229000  0.63650700  1
  Zn  Zn213  1  0.53596200  0.81738700  0.69549700  1
  Zn  Zn214  1  0.04032600  0.66285200  0.66896500  1
  Zn  Zn215  1  0.71450000  0.24831100  0.62593400  1
  Zn  Zn216  1  0.69621800  0.57676400  0.67804900  1
  Zn  Zn217  1  0.44316300  0.75046900  0.61190000  1
  Zn  Zn218  1  0.00206600  0.50000000  0.69363600  1
  Zn  Zn219  1  0.69573100  0.40771000  0.65076600  1
  Zn  Zn220  1  0.95836500  0.86290600  0.61230400  1
  Zn  Zn221  1  0.35691400  0.42312300  0.65984600  1
  Zn  Zn222  1  0.03105400  0.82447600  0.69552100  1
  Zn  Zn223  1  0.17785000  0.96319600  0.67666400  1
  Zn  Zn224  1  0.23190100  0.46639900  0.62674200  1
  Zn  Zn225  1  0.32099400  0.26762300  0.68352600  1
  Zn  Zn226  1  0.46816900  0.18261300  0.69177600  1
  Zn  Zn227  1  0.14576600  0.13709400  0.67496900  1
  Zn  Zn228  1  0.32686200  0.09965700  0.65713600  1
  Zn  Zn229  1  0.74721700  0.57687700  0.62742700  1
  Zn  Zn230  1  0.66096800  0.24953100  0.67537300  1
  Zn  Zn231  1  0.87223000  0.53360100  0.66053100  1
  Zn  Zn232  1  0.77726900  0.90034300  0.63013700  1
  Zn  Zn233  1  0.40791300  0.42323600  0.60922400  1
  Zn  Zn234  1  0.05206600  0.50000000  0.64363600  1
  Zn  Zn235  1  0.21377900  0.78453800  0.67904800  1
  Zn  Zn236  1  0.08003100  0.82500200  0.64503900  1
  Zn  Zn237  1  0.37803200  0.09783900  0.60860800  1
  Zn  Zn238  1  0.89035200  0.21546200  0.60822500  1
  Zn  Zn239  1  0.72609900  0.90216100  0.67866500  1
  Zn  Zn240  1  0.78313700  0.73237700  0.60374600  1
  Zn  Zn241  1  0.02410000  0.17499800  0.64223300  1
  Zn  Zn242  1  0.38963100  0.75168900  0.66133900  1
  Zn  Zn243  1  0.55206600  0.50000000  0.64363600  1
  Zn  Zn244  1  0.97307700  0.17552400  0.69175200  1
  Zn  Zn245  1  0.92628100  0.03680400  0.61060800  1
  Zn  Zn246  1  0.06380500  0.33714800  0.61830800  1
  Zn  Zn247  1  0.30840000  0.59229000  0.73650700  1
  Zn  Zn248  1  0.43596200  0.81738700  0.79549700  1
  Zn  Zn249  1  0.94032600  0.66285200  0.76896500  1
  Zn  Zn250  1  0.61450000  0.24831100  0.72593400  1
  Zn  Zn251  1  0.59621800  0.57676400  0.77804900  1
  Zn  Zn252  1  0.34316300  0.75046900  0.71190000  1
  Zn  Zn253  1  0.90206600  0.50000000  0.79363600  1
  Zn  Zn254  1  0.59573100  0.40771000  0.75076600  1
  Zn  Zn255  1  0.85836500  0.86290600  0.71230400  1
  Zn  Zn256  1  0.25691400  0.42312300  0.75984600  1
  Zn  Zn257  1  0.93105400  0.82447600  0.79552100  1
  Zn  Zn258  1  0.07785000  0.96319600  0.77666400  1
  Zn  Zn259  1  0.13190100  0.46639900  0.72674200  1
  Zn  Zn260  1  0.22099400  0.26762300  0.78352600  1
  Zn  Zn261  1  0.36816900  0.18261300  0.79177600  1
  Zn  Zn262  1  0.04576600  0.13709400  0.77496900  1
  Zn  Zn263  1  0.22686200  0.09965700  0.75713600  1
  Zn  Zn264  1  0.64721700  0.57687700  0.72742700  1
  Zn  Zn265  1  0.56096800  0.24953100  0.77537300  1
  Zn  Zn266  1  0.77223000  0.53360100  0.76053100  1
  Zn  Zn267  1  0.67726900  0.90034300  0.73013700  1
  Zn  Zn268  1  0.30791300  0.42323600  0.70922400  1
  Zn  Zn269  1  0.95206600  0.50000000  0.74363600  1
  Zn  Zn270  1  0.11377900  0.78453800  0.77904800  1
  Zn  Zn271  1  0.98003100  0.82500200  0.74503900  1
  Zn  Zn272  1  0.27803200  0.09783900  0.70860800  1
  Zn  Zn273  1  0.79035200  0.21546200  0.70822500  1
  Zn  Zn274  1  0.62609900  0.90216100  0.77866500  1
  Zn  Zn275  1  0.68313700  0.73237700  0.70374600  1
  Zn  Zn276  1  0.92410000  0.17499800  0.74223300  1
  Zn  Zn277  1  0.28963100  0.75168900  0.76133900  1
  Zn  Zn278  1  0.45206600  0.50000000  0.74363600  1
  Zn  Zn279  1  0.87307700  0.17552400  0.79175200  1
  Zn  Zn280  1  0.82628100  0.03680400  0.71060800  1
  Zn  Zn281  1  0.96380500  0.33714800  0.71830800  1
