# generated using pymatgen
data_Mg2Zn
_symmetry_space_group_name_H-M   'P 1'
_cell_length_a   3.10114600
_cell_length_b   4.91773400
_cell_length_c   46.61241000
_cell_angle_alpha   90.00000000
_cell_angle_beta   90.00000000
_cell_angle_gamma   90.00000000
_symmetry_Int_Tables_number   1
_chemical_formula_structural   Mg2Zn
_chemical_formula_sum   'Mg16 Zn8'
_cell_volume   710.86773842
_cell_formula_units_Z   8
loop_
 _symmetry_equiv_pos_site_id
 _symmetry_equiv_pos_as_xyz
  1  'x, y, z'
loop_
 _atom_site_type_symbol
 _atom_site_label
 _atom_site_symmetry_multiplicity
 _atom_site_fract_x
 _atom_site_fract_y
 _atom_site_fract_z
 _atom_site_occupancy
  Mg  Mg0  1  0.00000000  0.75000000  0.19899100  1
  Mg  Mg1  1  0.50000000  0.75000000  0.26076100  1
  Mg  Mg2  1  0.00000000  0.25000000  0.23923900  1
  Mg  Mg3  1  0.50000000  0.25000000  0.30100900  1
  Mg  Mg4  1  0.50000000  0.75000000  0.36565800  1
  Mg  Mg5  1  1.00000000  0.75000000  0.42742700  1
  Mg  Mg6  1  0.50000000  0.25000000  0.40590600  1
  Mg  Mg7  1  0.00000000  0.25000000  0.46767600  1
  Mg  Mg8  1  0.00000000  0.75000000  0.53232400  1
  Mg  Mg9  1  0.50000000  0.75000000  0.59409400  1
  Mg  Mg10  1  0.00000000  0.25000000  0.57257300  1
  Mg  Mg11  1  0.50000000  0.25000000  0.63434200  1
  Mg  Mg12  1  0.50000000  0.75000000  0.69899100  1
  Mg  Mg13  1  1.00000000  0.75000000  0.76076100  1
  Mg  Mg14  1  0.50000000  0.25000000  0.73923900  1
  Mg  Mg15  1  0.00000000  0.25000000  0.80100900  1
  Zn  Zn16  1  0.00000000  0.75000000  0.31414100  1
  Zn  Zn17  1  0.50000000  0.25000000  0.18585900  1
  Zn  Zn18  1  0.50000000  0.75000000  0.48080700  1
  Zn  Zn19  1  0.00000000  0.25000000  0.35252600  1
  Zn  Zn20  1  0.00000000  0.75000000  0.64747400  1
  Zn  Zn21  1  0.50000000  0.25000000  0.51919300  1
  Zn  Zn22  1  0.50000000  0.75000000  0.81414100  1
  Zn  Zn23  1  0.00000000  0.25000000  0.68585900  1
