# generated using pymatgen
data_Mg2Zn
_symmetry_space_group_name_H-M   'P 1'
_cell_length_a   4.91773400
_cell_length_b   7.92196460
_cell_length_c   42.58017600
_cell_angle_alpha   90.77495215
_cell_angle_beta   90.00000000
_cell_angle_gamma   90.00000000
_symmetry_Int_Tables_number   1
_chemical_formula_structural   Mg2Zn
_chemical_formula_sum   'Mg36 Zn18'
_cell_volume   1658.69164908
_cell_formula_units_Z   18
loop_
 _symmetry_equiv_pos_site_id
 _symmetry_equiv_pos_as_xyz
  1  'x, y, z'
loop_
 _atom_site_type_symbol
 _atom_site_label
 _atom_site_symmetry_multiplicity
 _atom_site_fract_x
 _atom_site_fract_y
 _atom_site_fract_z
 _atom_site_occupancy
  Mg  Mg0  1  0.75000000  0.63441000  0.81450200  1
  Mg  Mg1  1  0.75000000  0.31274200  0.76555100  1
  Mg  Mg2  1  0.25000000  0.40154400  0.80587700  1
  Mg  Mg3  1  0.25000000  0.07987600  0.75692700  1
  Mg  Mg4  1  0.75000000  0.70583800  0.74307300  1
  Mg  Mg5  1  0.75000000  0.38417100  0.69412300  1
  Mg  Mg6  1  0.25000000  0.47297200  0.73444900  1
  Mg  Mg7  1  0.25000000  0.15130500  0.68549800  1
  Mg  Mg8  1  0.75000000  0.77726700  0.67164500  1
  Mg  Mg9  1  0.75000000  0.45559900  0.62269400  1
  Mg  Mg10  1  0.25000000  0.54440100  0.66302000  1
  Mg  Mg11  1  0.25000000  0.22273300  0.61406900  1
  Mg  Mg12  1  0.75000000  0.84869500  0.60021600  1
  Mg  Mg13  1  0.75000000  0.52702800  0.55126600  1
  Mg  Mg14  1  0.25000000  0.61582900  0.59159200  1
  Mg  Mg15  1  0.25000000  0.29416200  0.54264100  1
  Mg  Mg16  1  0.75000000  0.92012400  0.52878800  1
  Mg  Mg17  1  0.75000000  0.59845600  0.47983700  1
  Mg  Mg18  1  0.25000000  0.68725800  0.52016300  1
  Mg  Mg19  1  0.25000000  0.36559000  0.47121200  1
  Mg  Mg20  1  0.75000000  0.99155300  0.45735900  1
  Mg  Mg21  1  0.75000000  0.66988500  0.40840800  1
  Mg  Mg22  1  0.25000000  0.75868700  0.44873400  1
  Mg  Mg23  1  0.25000000  0.43701900  0.39978400  1
  Mg  Mg24  1  0.75000000  0.06298100  0.38593100  1
  Mg  Mg25  1  0.75000000  0.74131300  0.33698000  1
  Mg  Mg26  1  0.25000000  0.83011500  0.37730600  1
  Mg  Mg27  1  0.25000000  0.50844700  0.32835500  1
  Mg  Mg28  1  0.75000000  0.13441000  0.31450200  1
  Mg  Mg29  1  0.75000000  0.81274200  0.26555100  1
  Mg  Mg30  1  0.25000000  0.90154400  0.30587700  1
  Mg  Mg31  1  0.25000000  0.57987600  0.25692700  1
  Mg  Mg32  1  0.75000000  0.20583800  0.24307300  1
  Mg  Mg33  1  0.75000000  0.88417100  0.19412300  1
  Mg  Mg34  1  0.25000000  0.97297200  0.23444900  1
  Mg  Mg35  1  0.25000000  0.65130500  0.18549800  1
  Zn  Zn36  1  0.75000000  0.96818600  0.78982700  1
  Zn  Zn37  1  0.25000000  0.74610000  0.78160200  1
  Zn  Zn38  1  0.75000000  0.03961400  0.71839800  1
  Zn  Zn39  1  0.25000000  0.81752900  0.71017300  1
  Zn  Zn40  1  0.75000000  0.11104300  0.64697000  1
  Zn  Zn41  1  0.25000000  0.88895700  0.63874400  1
  Zn  Zn42  1  0.75000000  0.18247100  0.57554100  1
  Zn  Zn43  1  0.25000000  0.96038600  0.56731600  1
  Zn  Zn44  1  0.75000000  0.25390000  0.50411300  1
  Zn  Zn45  1  0.25000000  0.03181400  0.49588700  1
  Zn  Zn46  1  0.75000000  0.32532800  0.43268400  1
  Zn  Zn47  1  0.25000000  0.10324300  0.42445900  1
  Zn  Zn48  1  0.75000000  0.39675700  0.36125600  1
  Zn  Zn49  1  0.25000000  0.17467200  0.35303000  1
  Zn  Zn50  1  0.75000000  0.46818600  0.28982700  1
  Zn  Zn51  1  0.25000000  0.24610000  0.28160200  1
  Zn  Zn52  1  0.75000000  0.53961400  0.21839800  1
  Zn  Zn53  1  0.25000000  0.31752900  0.21017300  1
