# generated using pymatgen
data_Mg23Ga57
_symmetry_space_group_name_H-M   'P 1'
_cell_length_a   12.45064400
_cell_length_b   11.26839076
_cell_length_c   46.76157100
_cell_angle_alpha   93.77131998
_cell_angle_beta   90.00000000
_cell_angle_gamma   56.46413678
_symmetry_Int_Tables_number   1
_chemical_formula_structural   Mg23Ga57
_chemical_formula_sum   'Mg46 Ga114'
_cell_volume   5451.46215196
_cell_formula_units_Z   2
loop_
 _symmetry_equiv_pos_site_id
 _symmetry_equiv_pos_as_xyz
  1  'x, y, z'
loop_
 _atom_site_type_symbol
 _atom_site_label
 _atom_site_symmetry_multiplicity
 _atom_site_fract_x
 _atom_site_fract_y
 _atom_site_fract_z
 _atom_site_occupancy
  Mg  Mg0  1  0.94417800  0.11164400  0.27948100  1
  Mg  Mg1  1  0.01281200  0.57242400  0.28928600  1
  Mg  Mg2  1  0.06476400  0.27242400  0.23928600  1
  Mg  Mg3  1  0.13339800  0.73320500  0.24909100  1
  Mg  Mg4  1  0.66281200  0.27242400  0.23928600  1
  Mg  Mg5  1  0.41476400  0.57242400  0.28928600  1
  Mg  Mg6  1  0.64417800  0.71164400  0.37948100  1
  Mg  Mg7  1  0.71281200  0.17242400  0.38928600  1
  Mg  Mg8  1  0.76476400  0.87242400  0.33928600  1
  Mg  Mg9  1  0.83339800  0.33320500  0.34909100  1
  Mg  Mg10  1  0.29417800  0.41164400  0.32948100  1
  Mg  Mg11  1  0.36281200  0.87242400  0.33928600  1
  Mg  Mg12  1  0.11476400  0.17242400  0.38928600  1
  Mg  Mg13  1  0.48339800  0.03320500  0.29909100  1
  Mg  Mg14  1  0.34417800  0.31164400  0.47948100  1
  Mg  Mg15  1  0.41281200  0.77242400  0.48928600  1
  Mg  Mg16  1  0.46476400  0.47242400  0.43928600  1
  Mg  Mg17  1  0.53339800  0.93320500  0.44909100  1
  Mg  Mg18  1  0.99417800  0.01164400  0.42948100  1
  Mg  Mg19  1  0.06281200  0.47242400  0.43928600  1
  Mg  Mg20  1  0.81476400  0.77242400  0.48928600  1
  Mg  Mg21  1  0.18339800  0.63320500  0.39909100  1
  Mg  Mg22  1  0.04417800  0.91164400  0.57948100  1
  Mg  Mg23  1  0.11281200  0.37242400  0.58928600  1
  Mg  Mg24  1  0.16476400  0.07242400  0.53928600  1
  Mg  Mg25  1  0.23339800  0.53320500  0.54909100  1
  Mg  Mg26  1  0.69417800  0.61164400  0.52948100  1
  Mg  Mg27  1  0.76281200  0.07242400  0.53928600  1
  Mg  Mg28  1  0.51476400  0.37242400  0.58928600  1
  Mg  Mg29  1  0.88339800  0.23320500  0.49909100  1
  Mg  Mg30  1  0.74417800  0.51164400  0.67948100  1
  Mg  Mg31  1  0.81281200  0.97242400  0.68928600  1
  Mg  Mg32  1  0.86476400  0.67242400  0.63928600  1
  Mg  Mg33  1  0.93339800  0.13320500  0.64909100  1
  Mg  Mg34  1  0.39417800  0.21164400  0.62948100  1
  Mg  Mg35  1  0.46281200  0.67242400  0.63928600  1
  Mg  Mg36  1  0.21476400  0.97242400  0.68928600  1
  Mg  Mg37  1  0.58339800  0.83320500  0.59909100  1
  Mg  Mg38  1  0.44417800  0.11164400  0.77948100  1
  Mg  Mg39  1  0.51281200  0.57242400  0.78928600  1
  Mg  Mg40  1  0.56476400  0.27242400  0.73928600  1
  Mg  Mg41  1  0.63339800  0.73320500  0.74909100  1
  Mg  Mg42  1  0.09417800  0.81164400  0.72948100  1
  Mg  Mg43  1  0.16281200  0.27242400  0.73928600  1
  Mg  Mg44  1  0.91476400  0.57242400  0.78928600  1
  Mg  Mg45  1  0.28339800  0.43320500  0.69909100  1
  Ga  Ga46  1  0.56192900  0.58018300  0.24125200  1
  Ga  Ga47  1  0.33031200  0.04341500  0.25044400  1
  Ga  Ga48  1  0.20788800  0.88018300  0.29125200  1
  Ga  Ga49  1  0.80120800  0.39758400  0.26014600  1
  Ga  Ga50  1  0.16564700  0.96466500  0.23731900  1
  Ga  Ga51  1  0.45130400  0.80143300  0.27812700  1
  Ga  Ga52  1  0.21968800  0.26466500  0.28731900  1
  Ga  Ga53  1  0.91192900  0.88018300  0.29125200  1
  Ga  Ga54  1  0.85788800  0.58018300  0.24125200  1
  Ga  Ga55  1  0.62627200  0.04341500  0.25044400  1
  Ga  Ga56  1  0.27636800  0.44726400  0.26842600  1
  Ga  Ga57  1  0.74726300  0.80143300  0.27812700  1
  Ga  Ga58  1  0.51564700  0.26466500  0.28731900  1
  Ga  Ga59  1  0.86968800  0.96466500  0.23731900  1
  Ga  Ga60  1  0.26192900  0.18018300  0.34125200  1
  Ga  Ga61  1  0.03031200  0.64341500  0.35044400  1
  Ga  Ga62  1  0.90788800  0.48018300  0.39125200  1
  Ga  Ga63  1  0.97627200  0.34341500  0.30044400  1
  Ga  Ga64  1  0.62636800  0.74726400  0.31842600  1
  Ga  Ga65  1  0.50120800  0.99758400  0.36014600  1
  Ga  Ga66  1  0.09726300  0.10143300  0.32812700  1
  Ga  Ga67  1  0.86564700  0.56466500  0.33731900  1
  Ga  Ga68  1  0.15130400  0.40143300  0.37812700  1
  Ga  Ga69  1  0.91968800  0.86466500  0.38731900  1
  Ga  Ga70  1  0.61192900  0.48018300  0.39125200  1
  Ga  Ga71  1  0.68031200  0.34341500  0.30044400  1
  Ga  Ga72  1  0.55788800  0.18018300  0.34125200  1
  Ga  Ga73  1  0.32627200  0.64341500  0.35044400  1
  Ga  Ga74  1  0.97636800  0.04726400  0.36842600  1
  Ga  Ga75  1  0.15120800  0.69758400  0.31014600  1
  Ga  Ga76  1  0.44726300  0.40143300  0.37812700  1
  Ga  Ga77  1  0.21564700  0.86466500  0.38731900  1
  Ga  Ga78  1  0.80130400  0.10143300  0.32812700  1
  Ga  Ga79  1  0.56968800  0.56466500  0.33731900  1
  Ga  Ga80  1  0.96192900  0.78018300  0.44125200  1
  Ga  Ga81  1  0.73031200  0.24341500  0.45044400  1
  Ga  Ga82  1  0.60788800  0.08018300  0.49125200  1
  Ga  Ga83  1  0.67627200  0.94341500  0.40044400  1
  Ga  Ga84  1  0.32636800  0.34726400  0.41842600  1
  Ga  Ga85  1  0.20120800  0.59758400  0.46014600  1
  Ga  Ga86  1  0.79726300  0.70143300  0.42812700  1
  Ga  Ga87  1  0.56564700  0.16466500  0.43731900  1
  Ga  Ga88  1  0.85130400  0.00143300  0.47812700  1
  Ga  Ga89  1  0.61968800  0.46466500  0.48731900  1
  Ga  Ga90  1  0.31192900  0.08018300  0.49125200  1
  Ga  Ga91  1  0.38031200  0.94341500  0.40044400  1
  Ga  Ga92  1  0.25788800  0.78018300  0.44125200  1
  Ga  Ga93  1  0.02627200  0.24341500  0.45044400  1
  Ga  Ga94  1  0.67636800  0.64726400  0.46842600  1
  Ga  Ga95  1  0.85120800  0.29758400  0.41014600  1
  Ga  Ga96  1  0.14726300  0.00143300  0.47812700  1
  Ga  Ga97  1  0.91564700  0.46466500  0.48731900  1
  Ga  Ga98  1  0.50130400  0.70143300  0.42812700  1
  Ga  Ga99  1  0.26968800  0.16466500  0.43731900  1
  Ga  Ga100  1  0.66192900  0.38018300  0.54125200  1
  Ga  Ga101  1  0.43031200  0.84341500  0.55044400  1
  Ga  Ga102  1  0.30788800  0.68018300  0.59125200  1
  Ga  Ga103  1  0.37627200  0.54341500  0.50044400  1
  Ga  Ga104  1  0.02636800  0.94726400  0.51842600  1
  Ga  Ga105  1  0.90120800  0.19758400  0.56014600  1
  Ga  Ga106  1  0.49726300  0.30143300  0.52812700  1
  Ga  Ga107  1  0.26564700  0.76466500  0.53731900  1
  Ga  Ga108  1  0.55130400  0.60143300  0.57812700  1
  Ga  Ga109  1  0.31968800  0.06466500  0.58731900  1
  Ga  Ga110  1  0.01192900  0.68018300  0.59125200  1
  Ga  Ga111  1  0.08031200  0.54341500  0.50044400  1
  Ga  Ga112  1  0.95788800  0.38018300  0.54125200  1
  Ga  Ga113  1  0.72627200  0.84341500  0.55044400  1
  Ga  Ga114  1  0.37636800  0.24726400  0.56842600  1
  Ga  Ga115  1  0.55120800  0.89758400  0.51014600  1
  Ga  Ga116  1  0.84726300  0.60143300  0.57812700  1
  Ga  Ga117  1  0.61564700  0.06466500  0.58731900  1
  Ga  Ga118  1  0.20130400  0.30143300  0.52812700  1
  Ga  Ga119  1  0.96968800  0.76466500  0.53731900  1
  Ga  Ga120  1  0.36192900  0.98018300  0.64125200  1
  Ga  Ga121  1  0.13031200  0.44341500  0.65044400  1
  Ga  Ga122  1  0.00788800  0.28018300  0.69125200  1
  Ga  Ga123  1  0.07627200  0.14341500  0.60044400  1
  Ga  Ga124  1  0.72636800  0.54726400  0.61842600  1
  Ga  Ga125  1  0.60120800  0.79758400  0.66014600  1
  Ga  Ga126  1  0.19726300  0.90143300  0.62812700  1
  Ga  Ga127  1  0.96564700  0.36466500  0.63731900  1
  Ga  Ga128  1  0.25130400  0.20143300  0.67812700  1
  Ga  Ga129  1  0.01968800  0.66466500  0.68731900  1
  Ga  Ga130  1  0.71192900  0.28018300  0.69125200  1
  Ga  Ga131  1  0.78031200  0.14341500  0.60044400  1
  Ga  Ga132  1  0.65788800  0.98018300  0.64125200  1
  Ga  Ga133  1  0.42627200  0.44341500  0.65044400  1
  Ga  Ga134  1  0.07636800  0.84726400  0.66842600  1
  Ga  Ga135  1  0.25120800  0.49758400  0.61014600  1
  Ga  Ga136  1  0.54726300  0.20143300  0.67812700  1
  Ga  Ga137  1  0.31564700  0.66466500  0.68731900  1
  Ga  Ga138  1  0.90130400  0.90143300  0.62812700  1
  Ga  Ga139  1  0.66968800  0.36466500  0.63731900  1
  Ga  Ga140  1  0.06192900  0.58018300  0.74125200  1
  Ga  Ga141  1  0.83031200  0.04341500  0.75044400  1
  Ga  Ga142  1  0.70788800  0.88018300  0.79125200  1
  Ga  Ga143  1  0.77627200  0.74341500  0.70044400  1
  Ga  Ga144  1  0.42636800  0.14726400  0.71842600  1
  Ga  Ga145  1  0.30120800  0.39758400  0.76014600  1
  Ga  Ga146  1  0.89726300  0.50143300  0.72812700  1
  Ga  Ga147  1  0.66564700  0.96466500  0.73731900  1
  Ga  Ga148  1  0.95130400  0.80143300  0.77812700  1
  Ga  Ga149  1  0.71968800  0.26466500  0.78731900  1
  Ga  Ga150  1  0.41192900  0.88018300  0.79125200  1
  Ga  Ga151  1  0.48031200  0.74341500  0.70044400  1
  Ga  Ga152  1  0.35788800  0.58018300  0.74125200  1
  Ga  Ga153  1  0.12627200  0.04341500  0.75044400  1
  Ga  Ga154  1  0.77636800  0.44726400  0.76842600  1
  Ga  Ga155  1  0.95120800  0.09758400  0.71014600  1
  Ga  Ga156  1  0.24726300  0.80143300  0.77812700  1
  Ga  Ga157  1  0.01564700  0.26466500  0.78731900  1
  Ga  Ga158  1  0.60130400  0.50143300  0.72812700  1
  Ga  Ga159  1  0.36968800  0.96466500  0.73731900  1
