# generated using pymatgen
data_Mg22Zn107
_symmetry_space_group_name_H-M   'P 1'
_cell_length_a   9.38239124
_cell_length_b   9.87228504
_cell_length_c   47.88422100
_cell_angle_alpha   93.42143374
_cell_angle_beta   90.35613488
_cell_angle_gamma   117.39448675
_symmetry_Int_Tables_number   1
_chemical_formula_structural   Mg22Zn107
_chemical_formula_sum   'Mg22 Zn107'
_cell_volume   3928.07221196
_cell_formula_units_Z   1
loop_
 _symmetry_equiv_pos_site_id
 _symmetry_equiv_pos_as_xyz
  1  'x, y, z'
loop_
 _atom_site_type_symbol
 _atom_site_label
 _atom_site_symmetry_multiplicity
 _atom_site_fract_x
 _atom_site_fract_y
 _atom_site_fract_z
 _atom_site_occupancy
  Mg  Mg0  1  0.53120700  0.37048900  0.70322600  1
  Mg  Mg1  1  0.33485600  0.36163600  0.75927400  1
  Mg  Mg2  1  0.79008700  0.91445300  0.78411700  1
  Mg  Mg3  1  0.17597600  0.01767200  0.77838300  1
  Mg  Mg4  1  0.43120700  0.17048900  0.60322600  1
  Mg  Mg5  1  0.23485600  0.16163600  0.65927400  1
  Mg  Mg6  1  0.69008700  0.71445300  0.68411700  1
  Mg  Mg7  1  0.07597600  0.81767200  0.67838300  1
  Mg  Mg8  1  0.33120700  0.97048900  0.50322600  1
  Mg  Mg9  1  0.13485600  0.96163600  0.55927400  1
  Mg  Mg10  1  0.59008700  0.51445300  0.58411700  1
  Mg  Mg11  1  0.97597600  0.61767200  0.57838300  1
  Mg  Mg12  1  0.23120700  0.77048900  0.40322600  1
  Mg  Mg13  1  0.03485600  0.76163600  0.45927400  1
  Mg  Mg14  1  0.49008700  0.31445300  0.48411700  1
  Mg  Mg15  1  0.87597600  0.41767200  0.47838300  1
  Mg  Mg16  1  0.13120700  0.57048900  0.30322600  1
  Mg  Mg17  1  0.93485600  0.56163600  0.35927400  1
  Mg  Mg18  1  0.39008700  0.11445300  0.38411700  1
  Mg  Mg19  1  0.77597600  0.21767200  0.37838300  1
  Mg  Mg20  1  0.29008700  0.91445300  0.28411700  1
  Mg  Mg21  1  0.67597600  0.01767200  0.27838300  1
  Zn  Zn22  1  0.48303100  0.96606300  0.78125000  1
  Zn  Zn23  1  0.61659400  0.92591900  0.72792500  1
  Zn  Zn24  1  0.77861500  0.24384400  0.71026200  1
  Zn  Zn25  1  0.20438600  0.09506100  0.71852800  1
  Zn  Zn26  1  0.66167600  0.63706500  0.74397200  1
  Zn  Zn27  1  0.94643700  0.68584000  0.76933500  1
  Zn  Zn28  1  0.44743800  0.69257800  0.76834900  1
  Zn  Zn29  1  0.24946900  0.80620600  0.73457500  1
  Zn  Zn30  1  0.71673800  0.41191600  0.75648000  1
  Zn  Zn31  1  0.46805300  0.13840500  0.74358000  1
  Zn  Zn32  1  0.39800900  0.59372000  0.71892000  1
  Zn  Zn33  1  0.51862500  0.23954800  0.79415100  1
  Zn  Zn34  1  0.97015600  0.14734500  0.74369500  1
  Zn  Zn35  1  0.08744800  0.48828200  0.75223800  1
  Zn  Zn36  1  0.89590700  0.58478000  0.71880500  1
  Zn  Zn37  1  0.01962600  0.24628500  0.79316500  1
  Zn  Zn38  1  0.93303100  0.86606300  0.73125000  1
  Zn  Zn39  1  0.21570700  0.75076700  0.79321100  1
  Zn  Zn40  1  0.75035600  0.18135900  0.76928900  1
  Zn  Zn41  1  0.14932500  0.32020900  0.70602000  1
  Zn  Zn42  1  0.38303100  0.76606300  0.68125000  1
  Zn  Zn43  1  0.51659400  0.72591900  0.62792500  1
  Zn  Zn44  1  0.67861500  0.04384400  0.61026200  1
  Zn  Zn45  1  0.10438600  0.89506100  0.61852800  1
  Zn  Zn46  1  0.56167600  0.43706500  0.64397200  1
  Zn  Zn47  1  0.84643700  0.48584000  0.66933500  1
  Zn  Zn48  1  0.34743800  0.49257800  0.66834900  1
  Zn  Zn49  1  0.14946900  0.60620600  0.63457500  1
  Zn  Zn50  1  0.61673800  0.21191600  0.65648000  1
  Zn  Zn51  1  0.36805300  0.93840500  0.64358000  1
  Zn  Zn52  1  0.29800900  0.39372000  0.61892000  1
  Zn  Zn53  1  0.41862500  0.03954800  0.69415100  1
  Zn  Zn54  1  0.87015600  0.94734500  0.64369500  1
  Zn  Zn55  1  0.98744800  0.28828200  0.65223800  1
  Zn  Zn56  1  0.79590700  0.38478000  0.61880500  1
  Zn  Zn57  1  0.91962600  0.04628500  0.69316500  1
  Zn  Zn58  1  0.83303100  0.66606300  0.63125000  1
  Zn  Zn59  1  0.11570700  0.55076700  0.69321100  1
  Zn  Zn60  1  0.65035600  0.98135900  0.66928900  1
  Zn  Zn61  1  0.04932500  0.12020900  0.60602000  1
  Zn  Zn62  1  0.28303100  0.56606300  0.58125000  1
  Zn  Zn63  1  0.41659400  0.52591900  0.52792500  1
  Zn  Zn64  1  0.57861500  0.84384400  0.51026200  1
  Zn  Zn65  1  0.00438600  0.69506100  0.51852800  1
  Zn  Zn66  1  0.46167600  0.23706500  0.54397200  1
  Zn  Zn67  1  0.74643700  0.28584000  0.56933500  1
  Zn  Zn68  1  0.24743800  0.29257800  0.56834900  1
  Zn  Zn69  1  0.04946900  0.40620600  0.53457500  1
  Zn  Zn70  1  0.51673800  0.01191600  0.55648000  1
  Zn  Zn71  1  0.26805300  0.73840500  0.54358000  1
  Zn  Zn72  1  0.19800900  0.19372000  0.51892000  1
  Zn  Zn73  1  0.31862500  0.83954800  0.59415100  1
  Zn  Zn74  1  0.77015600  0.74734500  0.54369500  1
  Zn  Zn75  1  0.88744800  0.08828200  0.55223800  1
  Zn  Zn76  1  0.69590700  0.18478000  0.51880500  1
  Zn  Zn77  1  0.81962600  0.84628500  0.59316500  1
  Zn  Zn78  1  0.73303100  0.46606300  0.53125000  1
  Zn  Zn79  1  0.01570700  0.35076700  0.59321100  1
  Zn  Zn80  1  0.55035600  0.78135900  0.56928900  1
  Zn  Zn81  1  0.94932500  0.92020900  0.50602000  1
  Zn  Zn82  1  0.18303100  0.36606300  0.48125000  1
  Zn  Zn83  1  0.31659400  0.32591900  0.42792500  1
  Zn  Zn84  1  0.47861500  0.64384400  0.41026200  1
  Zn  Zn85  1  0.90438600  0.49506100  0.41852800  1
  Zn  Zn86  1  0.36167600  0.03706500  0.44397200  1
  Zn  Zn87  1  0.64643700  0.08584000  0.46933500  1
  Zn  Zn88  1  0.14743800  0.09257800  0.46834900  1
  Zn  Zn89  1  0.94946900  0.20620600  0.43457500  1
  Zn  Zn90  1  0.41673800  0.81191600  0.45648000  1
  Zn  Zn91  1  0.16805300  0.53840500  0.44358000  1
  Zn  Zn92  1  0.09800900  0.99372000  0.41892000  1
  Zn  Zn93  1  0.21862500  0.63954800  0.49415100  1
  Zn  Zn94  1  0.67015600  0.54734500  0.44369500  1
  Zn  Zn95  1  0.78744800  0.88828200  0.45223800  1
  Zn  Zn96  1  0.59590700  0.98478000  0.41880500  1
  Zn  Zn97  1  0.71962600  0.64628500  0.49316500  1
  Zn  Zn98  1  0.63303100  0.26606300  0.43125000  1
  Zn  Zn99  1  0.91570700  0.15076700  0.49321100  1
  Zn  Zn100  1  0.45035600  0.58135900  0.46928900  1
  Zn  Zn101  1  0.84932500  0.72020900  0.40602000  1
  Zn  Zn102  1  0.08303100  0.16606300  0.38125000  1
  Zn  Zn103  1  0.21659400  0.12591900  0.32792500  1
  Zn  Zn104  1  0.37861500  0.44384400  0.31026200  1
  Zn  Zn105  1  0.80438600  0.29506100  0.31852800  1
  Zn  Zn106  1  0.26167600  0.83706500  0.34397200  1
  Zn  Zn107  1  0.54643700  0.88584000  0.36933500  1
  Zn  Zn108  1  0.04743800  0.89257800  0.36834900  1
  Zn  Zn109  1  0.84946900  0.00620600  0.33457500  1
  Zn  Zn110  1  0.31673800  0.61191600  0.35648000  1
  Zn  Zn111  1  0.06805300  0.33840500  0.34358000  1
  Zn  Zn112  1  0.99800900  0.79372000  0.31892000  1
  Zn  Zn113  1  0.11862500  0.43954800  0.39415100  1
  Zn  Zn114  1  0.57015600  0.34734500  0.34369500  1
  Zn  Zn115  1  0.68744800  0.68828200  0.35223800  1
  Zn  Zn116  1  0.49590700  0.78478000  0.31880500  1
  Zn  Zn117  1  0.61962600  0.44628500  0.39316500  1
  Zn  Zn118  1  0.53303100  0.06606300  0.33125000  1
  Zn  Zn119  1  0.81570700  0.95076700  0.39321100  1
  Zn  Zn120  1  0.35035600  0.38135900  0.36928900  1
  Zn  Zn121  1  0.74932500  0.52020900  0.30602000  1
  Zn  Zn122  1  0.98303100  0.96606300  0.28125000  1
  Zn  Zn123  1  0.44643700  0.68584000  0.26933500  1
  Zn  Zn124  1  0.94743800  0.69257800  0.26834900  1
  Zn  Zn125  1  0.01862500  0.23954800  0.29415100  1
  Zn  Zn126  1  0.51962600  0.24628500  0.29316500  1
  Zn  Zn127  1  0.71570700  0.75076700  0.29321100  1
  Zn  Zn128  1  0.25035600  0.18135900  0.26928900  1
