# generated using pymatgen
data_Mg15Hg7
_symmetry_space_group_name_H-M   'P 1'
_cell_length_a   7.97718666
_cell_length_b   9.83847239
_cell_length_c   45.39858300
_cell_angle_alpha   91.26955969
_cell_angle_beta   89.07673454
_cell_angle_gamma   73.25679879
_symmetry_Int_Tables_number   1
_chemical_formula_structural   Mg15Hg7
_chemical_formula_sum   'Mg60 Hg28'
_cell_volume   3410.19980381
_cell_formula_units_Z   4
loop_
 _symmetry_equiv_pos_site_id
 _symmetry_equiv_pos_as_xyz
  1  'x, y, z'
loop_
 _atom_site_type_symbol
 _atom_site_label
 _atom_site_symmetry_multiplicity
 _atom_site_fract_x
 _atom_site_fract_y
 _atom_site_fract_z
 _atom_site_occupancy
  Mg  Mg0  1  0.21323000  0.08437400  0.25093700  1
  Mg  Mg1  1  0.23465600  0.63956900  0.26188300  1
  Mg  Mg2  1  0.90467800  0.92557000  0.25560100  1
  Mg  Mg3  1  0.54320800  0.79837300  0.25722000  1
  Mg  Mg4  1  0.90553800  0.93052800  0.32786000  1
  Mg  Mg5  1  0.92696400  0.48572300  0.33880600  1
  Mg  Mg6  1  0.53566500  0.07267800  0.29532900  1
  Mg  Mg7  1  0.60452900  0.49741900  0.29441500  1
  Mg  Mg8  1  0.13512800  0.16683500  0.32298900  1
  Mg  Mg9  1  0.00506600  0.40326200  0.26675500  1
  Mg  Mg10  1  0.59698600  0.77172400  0.33252400  1
  Mg  Mg11  1  0.23551500  0.64452700  0.33414300  1
  Mg  Mg12  1  0.59784600  0.77668200  0.40478400  1
  Mg  Mg13  1  0.61927100  0.33187700  0.41572900  1
  Mg  Mg14  1  0.22797300  0.91883200  0.37225200  1
  Mg  Mg15  1  0.29683600  0.34357300  0.37133800  1
  Mg  Mg16  1  0.82743500  0.01298900  0.39991200  1
  Mg  Mg17  1  0.69737400  0.24941600  0.34367800  1
  Mg  Mg18  1  0.28929400  0.61787800  0.40944700  1
  Mg  Mg19  1  0.92782300  0.49068000  0.41106600  1
  Mg  Mg20  1  0.29015300  0.62283600  0.48170700  1
  Mg  Mg21  1  0.31157900  0.17803000  0.49265200  1
  Mg  Mg22  1  0.92028100  0.76498600  0.44917500  1
  Mg  Mg23  1  0.98914400  0.18972700  0.44826100  1
  Mg  Mg24  1  0.51974300  0.85914300  0.47683500  1
  Mg  Mg25  1  0.38968200  0.09557000  0.42060100  1
  Mg  Mg26  1  0.98160100  0.46403200  0.48637000  1
  Mg  Mg27  1  0.62013100  0.33683400  0.48798900  1
  Mg  Mg28  1  0.98246100  0.46899000  0.55863000  1
  Mg  Mg29  1  0.00388700  0.02418400  0.56957500  1
  Mg  Mg30  1  0.61258800  0.61113900  0.52609800  1
  Mg  Mg31  1  0.68145200  0.03588100  0.52518400  1
  Mg  Mg32  1  0.21205100  0.70529700  0.55375800  1
  Mg  Mg33  1  0.08198900  0.94172300  0.49752400  1
  Mg  Mg34  1  0.67390900  0.31018600  0.56329300  1
  Mg  Mg35  1  0.31243900  0.18298800  0.56491200  1
  Mg  Mg36  1  0.67476900  0.31514300  0.63555300  1
  Mg  Mg37  1  0.69619400  0.87033800  0.64649900  1
  Mg  Mg38  1  0.30489600  0.45729300  0.60302100  1
  Mg  Mg39  1  0.37375900  0.88203400  0.60210700  1
  Mg  Mg40  1  0.90435800  0.55145000  0.63068100  1
  Mg  Mg41  1  0.77429700  0.78787700  0.57444700  1
  Mg  Mg42  1  0.36621700  0.15634000  0.64021600  1
  Mg  Mg43  1  0.00474600  0.02914200  0.64183500  1
  Mg  Mg44  1  0.36707600  0.16129700  0.71247600  1
  Mg  Mg45  1  0.38850200  0.71649200  0.72342200  1
  Mg  Mg46  1  0.99720400  0.30344700  0.67994400  1
  Mg  Mg47  1  0.06606700  0.72818800  0.67903000  1
  Mg  Mg48  1  0.59666600  0.39760400  0.70760400  1
  Mg  Mg49  1  0.46660500  0.63403100  0.65137000  1
  Mg  Mg50  1  0.05852400  0.00249300  0.71713900  1
  Mg  Mg51  1  0.69705400  0.87529600  0.71875800  1
  Mg  Mg52  1  0.05938400  0.00745100  0.78939900  1
  Mg  Mg53  1  0.08081000  0.56264600  0.80034500  1
  Mg  Mg54  1  0.68951100  0.14960100  0.75686700  1
  Mg  Mg55  1  0.75837500  0.57434200  0.75595300  1
  Mg  Mg56  1  0.28897400  0.24375800  0.78452700  1
  Mg  Mg57  1  0.15891200  0.48018500  0.72829400  1
  Mg  Mg58  1  0.75083200  0.84864700  0.79406200  1
  Mg  Mg59  1  0.38936200  0.72145000  0.79568100  1
  Hg  Hg60  1  0.87405800  0.68869800  0.28881600  1
  Hg  Hg61  1  0.26613600  0.88139900  0.30092700  1
  Hg  Hg62  1  0.30731200  0.37224900  0.30550300  1
  Hg  Hg63  1  0.83288200  0.19784800  0.28424100  1
  Hg  Hg64  1  0.56636500  0.53485200  0.36573900  1
  Hg  Hg65  1  0.95844400  0.72755300  0.37785100  1
  Hg  Hg66  1  0.99961900  0.21840300  0.38242600  1
  Hg  Hg67  1  0.52519000  0.04400200  0.36116400  1
  Hg  Hg68  1  0.25867300  0.38100600  0.44266200  1
  Hg  Hg69  1  0.65075200  0.57370700  0.45477400  1
  Hg  Hg70  1  0.69192700  0.06455700  0.45934900  1
  Hg  Hg71  1  0.21749700  0.89015600  0.43808700  1
  Hg  Hg72  1  0.95098100  0.22715900  0.51958500  1
  Hg  Hg73  1  0.34305900  0.41986100  0.53169700  1
  Hg  Hg74  1  0.38423500  0.91071000  0.53627200  1
  Hg  Hg75  1  0.90980500  0.73631000  0.51501000  1
  Hg  Hg76  1  0.64328800  0.07331300  0.59650800  1
  Hg  Hg77  1  0.03536700  0.26601400  0.60862000  1
  Hg  Hg78  1  0.07654300  0.75686400  0.61319500  1
  Hg  Hg79  1  0.60211300  0.58246300  0.59193300  1
  Hg  Hg80  1  0.33559600  0.91946700  0.67343100  1
  Hg  Hg81  1  0.72767500  0.11216800  0.68554300  1
  Hg  Hg82  1  0.76885000  0.60301800  0.69011800  1
  Hg  Hg83  1  0.29442000  0.42861700  0.66885600  1
  Hg  Hg84  1  0.02790400  0.76562100  0.75035500  1
  Hg  Hg85  1  0.41998200  0.95832200  0.76246600  1
  Hg  Hg86  1  0.46115800  0.44917200  0.76704100  1
  Hg  Hg87  1  0.98672800  0.27477100  0.74577900  1
