# generated using pymatgen
data_Pr2Mg
_symmetry_space_group_name_H-M   'P 1'
_cell_length_a   3.86864600
_cell_length_b   18.41565457
_cell_length_c   43.75003900
_cell_angle_alpha   95.45902962
_cell_angle_beta   90.00000000
_cell_angle_gamma   90.00000000
_symmetry_Int_Tables_number   1
_chemical_formula_structural   Pr2Mg
_chemical_formula_sum   'Pr40 Mg20'
_cell_volume   3102.77557697
_cell_formula_units_Z   20
loop_
 _symmetry_equiv_pos_site_id
 _symmetry_equiv_pos_as_xyz
  1  'x, y, z'
loop_
 _atom_site_type_symbol
 _atom_site_label
 _atom_site_symmetry_multiplicity
 _atom_site_fract_x
 _atom_site_fract_y
 _atom_site_fract_z
 _atom_site_occupancy
  Pr  Pr0  1  1.00000000  0.98719900  0.26075700  1
  Pr  Pr1  1  0.50000000  0.82978800  0.28324500  1
  Pr  Pr2  1  0.50000000  0.63780100  0.23924300  1
  Pr  Pr3  1  0.00000000  0.79521200  0.21675500  1
  Pr  Pr4  1  0.50000000  0.42469900  0.19825700  1
  Pr  Pr5  1  0.00000000  0.26728800  0.22074500  1
  Pr  Pr6  1  0.00000000  0.20030100  0.30174300  1
  Pr  Pr7  1  0.50000000  0.35771200  0.27925500  1
  Pr  Pr8  1  0.00000000  0.11219900  0.38575700  1
  Pr  Pr9  1  0.50000000  0.95478800  0.40824500  1
  Pr  Pr10  1  0.50000000  0.76280100  0.36424300  1
  Pr  Pr11  1  1.00000000  0.92021200  0.34175500  1
  Pr  Pr12  1  0.50000000  0.54969900  0.32325700  1
  Pr  Pr13  1  1.00000000  0.39228800  0.34574500  1
  Pr  Pr14  1  1.00000000  0.32530100  0.42674300  1
  Pr  Pr15  1  0.50000000  0.48271200  0.40425500  1
  Pr  Pr16  1  1.00000000  0.23719900  0.51075700  1
  Pr  Pr17  1  0.50000000  0.07978800  0.53324500  1
  Pr  Pr18  1  0.50000000  0.88780100  0.48924300  1
  Pr  Pr19  1  1.00000000  0.04521200  0.46675500  1
  Pr  Pr20  1  0.50000000  0.67469900  0.44825700  1
  Pr  Pr21  1  1.00000000  0.51728800  0.47074500  1
  Pr  Pr22  1  0.00000000  0.45030100  0.55174300  1
  Pr  Pr23  1  0.50000000  0.60771200  0.52925500  1
  Pr  Pr24  1  1.00000000  0.36219900  0.63575700  1
  Pr  Pr25  1  0.50000000  0.20478800  0.65824500  1
  Pr  Pr26  1  0.50000000  0.01280100  0.61424300  1
  Pr  Pr27  1  1.00000000  0.17021200  0.59175500  1
  Pr  Pr28  1  0.50000000  0.79969900  0.57325700  1
  Pr  Pr29  1  1.00000000  0.64228800  0.59574500  1
  Pr  Pr30  1  0.00000000  0.57530100  0.67674300  1
  Pr  Pr31  1  0.50000000  0.73271200  0.65425500  1
  Pr  Pr32  1  1.00000000  0.48719900  0.76075700  1
  Pr  Pr33  1  0.50000000  0.32978800  0.78324500  1
  Pr  Pr34  1  0.50000000  0.13780100  0.73924300  1
  Pr  Pr35  1  1.00000000  0.29521200  0.71675500  1
  Pr  Pr36  1  0.50000000  0.92469900  0.69825700  1
  Pr  Pr37  1  1.00000000  0.76728800  0.72074500  1
  Pr  Pr38  1  1.00000000  0.70030100  0.80174300  1
  Pr  Pr39  1  0.50000000  0.85771200  0.77925500  1
  Mg  Mg40  1  0.00000000  0.68786000  0.30352000  1
  Mg  Mg41  1  0.50000000  0.93714000  0.19648000  1
  Mg  Mg42  1  0.50000000  0.12536000  0.24102000  1
  Mg  Mg43  1  1.00000000  0.49964000  0.25898000  1
  Mg  Mg44  1  0.00000000  0.81286000  0.42852000  1
  Mg  Mg45  1  0.50000000  0.06214000  0.32148000  1
  Mg  Mg46  1  0.50000000  0.25036000  0.36602000  1
  Mg  Mg47  1  1.00000000  0.62464000  0.38398000  1
  Mg  Mg48  1  0.00000000  0.93786000  0.55352000  1
  Mg  Mg49  1  0.50000000  0.18714000  0.44648000  1
  Mg  Mg50  1  0.50000000  0.37536000  0.49102000  1
  Mg  Mg51  1  1.00000000  0.74964000  0.50898000  1
  Mg  Mg52  1  0.00000000  0.06286000  0.67852000  1
  Mg  Mg53  1  0.50000000  0.31214000  0.57148000  1
  Mg  Mg54  1  0.50000000  0.50036000  0.61602000  1
  Mg  Mg55  1  1.00000000  0.87464000  0.63398000  1
  Mg  Mg56  1  0.00000000  0.18786000  0.80352000  1
  Mg  Mg57  1  0.50000000  0.43714000  0.69648000  1
  Mg  Mg58  1  0.50000000  0.62536000  0.74102000  1
  Mg  Mg59  1  1.00000000  0.99964000  0.75898000  1
