# generated using pymatgen
data_Ca3Mg
_symmetry_space_group_name_H-M   'P 1'
_cell_length_a   7.46440003
_cell_length_b   7.46439967
_cell_length_c   42.87971200
_cell_angle_alpha   90.00000000
_cell_angle_beta   94.99327857
_cell_angle_gamma   59.99999829
_symmetry_Int_Tables_number   1
_chemical_formula_structural   Ca3Mg
_chemical_formula_sum   'Ca27 Mg9'
_cell_volume   2058.57982734
_cell_formula_units_Z   9
loop_
 _symmetry_equiv_pos_site_id
 _symmetry_equiv_pos_as_xyz
  1  'x, y, z'
loop_
 _atom_site_type_symbol
 _atom_site_label
 _atom_site_symmetry_multiplicity
 _atom_site_fract_x
 _atom_site_fract_y
 _atom_site_fract_z
 _atom_site_occupancy
  Ca  Ca0  1  0.35714300  0.82142900  0.21428600  1
  Ca  Ca1  1  0.85714300  0.32142900  0.21428600  1
  Ca  Ca2  1  0.35714300  0.32142900  0.21428600  1
  Ca  Ca3  1  0.07142900  0.46428600  0.28571400  1
  Ca  Ca4  1  0.57142900  0.96428600  0.28571400  1
  Ca  Ca5  1  0.07142900  0.96428600  0.28571400  1
  Ca  Ca6  1  0.78571400  0.10714300  0.35714300  1
  Ca  Ca7  1  0.28571400  0.60714300  0.35714300  1
  Ca  Ca8  1  0.78571400  0.60714300  0.35714300  1
  Ca  Ca9  1  0.50000000  0.75000000  0.42857100  1
  Ca  Ca10  1  0.00000000  0.25000000  0.42857100  1
  Ca  Ca11  1  0.50000000  0.25000000  0.42857100  1
  Ca  Ca12  1  0.21428600  0.39285700  0.50000000  1
  Ca  Ca13  1  0.71428600  0.89285700  0.50000000  1
  Ca  Ca14  1  0.21428600  0.89285700  0.50000000  1
  Ca  Ca15  1  0.92857100  0.03571400  0.57142900  1
  Ca  Ca16  1  0.42857100  0.53571400  0.57142900  1
  Ca  Ca17  1  0.92857100  0.53571400  0.57142900  1
  Ca  Ca18  1  0.64285700  0.67857100  0.64285700  1
  Ca  Ca19  1  0.14285700  0.17857100  0.64285700  1
  Ca  Ca20  1  0.64285700  0.17857100  0.64285700  1
  Ca  Ca21  1  0.35714300  0.32142900  0.71428600  1
  Ca  Ca22  1  0.85714300  0.82142900  0.71428600  1
  Ca  Ca23  1  0.35714300  0.82142900  0.71428600  1
  Ca  Ca24  1  0.07142900  0.96428600  0.78571400  1
  Ca  Ca25  1  0.57142900  0.46428600  0.78571400  1
  Ca  Ca26  1  0.07142900  0.46428600  0.78571400  1
  Mg  Mg27  1  0.85714300  0.82142900  0.21428600  1
  Mg  Mg28  1  0.57142900  0.46428600  0.28571400  1
  Mg  Mg29  1  0.28571400  0.10714300  0.35714300  1
  Mg  Mg30  1  0.00000000  0.75000000  0.42857100  1
  Mg  Mg31  1  0.71428600  0.39285700  0.50000000  1
  Mg  Mg32  1  0.42857100  0.03571400  0.57142900  1
  Mg  Mg33  1  0.14285700  0.67857100  0.64285700  1
  Mg  Mg34  1  0.85714300  0.32142900  0.71428600  1
  Mg  Mg35  1  0.57142900  0.96428600  0.78571400  1
