# generated using pymatgen
data_Mg57In22
_symmetry_space_group_name_H-M   'P 1'
_cell_length_a   9.50418390
_cell_length_b   15.96413630
_cell_length_c   44.93250200
_cell_angle_alpha   88.74178919
_cell_angle_beta   89.64260529
_cell_angle_gamma   74.77278805
_symmetry_Int_Tables_number   1
_chemical_formula_structural   Mg57In22
_chemical_formula_sum   'Mg114 In44'
_cell_volume   6576.49852534
_cell_formula_units_Z   2
loop_
 _symmetry_equiv_pos_site_id
 _symmetry_equiv_pos_as_xyz
  1  'x, y, z'
loop_
 _atom_site_type_symbol
 _atom_site_label
 _atom_site_symmetry_multiplicity
 _atom_site_fract_x
 _atom_site_fract_y
 _atom_site_fract_z
 _atom_site_occupancy
  Mg  Mg0  1  0.21875600  0.92968900  0.26785700  1
  Mg  Mg1  1  0.61338300  0.16677800  0.29420000  1
  Mg  Mg2  1  0.12412800  0.14260000  0.29151400  1
  Mg  Mg3  1  0.32412800  0.19260000  0.24151400  1
  Mg  Mg4  1  0.81338300  0.21677800  0.24420000  1
  Mg  Mg5  1  0.38397800  0.51471500  0.26790700  1
  Mg  Mg6  1  0.55353300  0.84466200  0.26780700  1
  Mg  Mg7  1  0.95203900  0.86157800  0.25089200  1
  Mg  Mg8  1  0.98547200  0.49780000  0.28482300  1
  Mg  Mg9  1  0.71875600  0.42968900  0.26785700  1
  Mg  Mg10  1  0.31338300  0.71677800  0.24420000  1
  Mg  Mg11  1  0.82412800  0.69260000  0.24151400  1
  Mg  Mg12  1  0.62412800  0.64260000  0.29151400  1
  Mg  Mg13  1  0.11338300  0.66677800  0.29420000  1
  Mg  Mg14  1  0.68397800  0.96471500  0.31790700  1
  Mg  Mg15  1  0.85353300  0.29466200  0.31780700  1
  Mg  Mg16  1  0.25203900  0.31157800  0.30089200  1
  Mg  Mg17  1  0.28547200  0.94780000  0.33482300  1
  Mg  Mg18  1  0.81875600  0.82968900  0.36785700  1
  Mg  Mg19  1  0.01875600  0.87968900  0.31785700  1
  Mg  Mg20  1  0.21338300  0.06677800  0.39420000  1
  Mg  Mg21  1  0.72412800  0.04260000  0.39151400  1
  Mg  Mg22  1  0.92412800  0.09260000  0.34151400  1
  Mg  Mg23  1  0.41338300  0.11677800  0.34420000  1
  Mg  Mg24  1  0.98397800  0.41471500  0.36790700  1
  Mg  Mg25  1  0.15353300  0.74466200  0.36780700  1
  Mg  Mg26  1  0.55203900  0.76157800  0.35089200  1
  Mg  Mg27  1  0.58547200  0.39780000  0.38482300  1
  Mg  Mg28  1  0.51875600  0.37968900  0.31785700  1
  Mg  Mg29  1  0.31875600  0.32968900  0.36785700  1
  Mg  Mg30  1  0.91338300  0.61677800  0.34420000  1
  Mg  Mg31  1  0.42412800  0.59260000  0.34151400  1
  Mg  Mg32  1  0.22412800  0.54260000  0.39151400  1
  Mg  Mg33  1  0.71338300  0.56677800  0.39420000  1
  Mg  Mg34  1  0.28397800  0.86471500  0.41790700  1
  Mg  Mg35  1  0.45353300  0.19466200  0.41780700  1
  Mg  Mg36  1  0.85203900  0.21157800  0.40089200  1
  Mg  Mg37  1  0.88547200  0.84780000  0.43482300  1
  Mg  Mg38  1  0.41875600  0.72968900  0.46785700  1
  Mg  Mg39  1  0.61875600  0.77968900  0.41785700  1
  Mg  Mg40  1  0.81338300  0.96677800  0.49420000  1
  Mg  Mg41  1  0.32412800  0.94260000  0.49151400  1
  Mg  Mg42  1  0.52412800  0.99260000  0.44151400  1
  Mg  Mg43  1  0.01338300  0.01677800  0.44420000  1
  Mg  Mg44  1  0.58397800  0.31471500  0.46790700  1
  Mg  Mg45  1  0.75353300  0.64466200  0.46780700  1
  Mg  Mg46  1  0.15203900  0.66157800  0.45089200  1
  Mg  Mg47  1  0.18547200  0.29780000  0.48482300  1
  Mg  Mg48  1  0.11875600  0.27968900  0.41785700  1
  Mg  Mg49  1  0.91875600  0.22968900  0.46785700  1
  Mg  Mg50  1  0.51338300  0.51677800  0.44420000  1
  Mg  Mg51  1  0.02412800  0.49260000  0.44151400  1
  Mg  Mg52  1  0.82412800  0.44260000  0.49151400  1
  Mg  Mg53  1  0.31338300  0.46677800  0.49420000  1
  Mg  Mg54  1  0.88397800  0.76471500  0.51790700  1
  Mg  Mg55  1  0.05353300  0.09466200  0.51780700  1
  Mg  Mg56  1  0.45203900  0.11157800  0.50089200  1
  Mg  Mg57  1  0.48547200  0.74780000  0.53482300  1
  Mg  Mg58  1  0.01875600  0.62968900  0.56785700  1
  Mg  Mg59  1  0.21875600  0.67968900  0.51785700  1
  Mg  Mg60  1  0.41338300  0.86677800  0.59420000  1
  Mg  Mg61  1  0.92412800  0.84260000  0.59151400  1
  Mg  Mg62  1  0.12412800  0.89260000  0.54151400  1
  Mg  Mg63  1  0.61338300  0.91677800  0.54420000  1
  Mg  Mg64  1  0.18397800  0.21471500  0.56790700  1
  Mg  Mg65  1  0.35353300  0.54466200  0.56780700  1
  Mg  Mg66  1  0.75203900  0.56157800  0.55089200  1
  Mg  Mg67  1  0.78547200  0.19780000  0.58482300  1
  Mg  Mg68  1  0.71875600  0.17968900  0.51785700  1
  Mg  Mg69  1  0.51875600  0.12968900  0.56785700  1
  Mg  Mg70  1  0.11338300  0.41677800  0.54420000  1
  Mg  Mg71  1  0.62412800  0.39260000  0.54151400  1
  Mg  Mg72  1  0.42412800  0.34260000  0.59151400  1
  Mg  Mg73  1  0.91338300  0.36677800  0.59420000  1
  Mg  Mg74  1  0.48397800  0.66471500  0.61790700  1
  Mg  Mg75  1  0.65353300  0.99466200  0.61780700  1
  Mg  Mg76  1  0.05203900  0.01157800  0.60089200  1
  Mg  Mg77  1  0.08547200  0.64780000  0.63482300  1
  Mg  Mg78  1  0.61875600  0.52968900  0.66785700  1
  Mg  Mg79  1  0.81875600  0.57968900  0.61785700  1
  Mg  Mg80  1  0.01338300  0.76677800  0.69420000  1
  Mg  Mg81  1  0.52412800  0.74260000  0.69151400  1
  Mg  Mg82  1  0.72412800  0.79260000  0.64151400  1
  Mg  Mg83  1  0.21338300  0.81677800  0.64420000  1
  Mg  Mg84  1  0.78397800  0.11471500  0.66790700  1
  Mg  Mg85  1  0.95353300  0.44466200  0.66780700  1
  Mg  Mg86  1  0.35203900  0.46157800  0.65089200  1
  Mg  Mg87  1  0.38547200  0.09780000  0.68482300  1
  Mg  Mg88  1  0.31875600  0.07968900  0.61785700  1
  Mg  Mg89  1  0.11875600  0.02968900  0.66785700  1
  Mg  Mg90  1  0.71338300  0.31677800  0.64420000  1
  Mg  Mg91  1  0.22412800  0.29260000  0.64151400  1
  Mg  Mg92  1  0.02412800  0.24260000  0.69151400  1
  Mg  Mg93  1  0.51338300  0.26677800  0.69420000  1
  Mg  Mg94  1  0.08397800  0.56471500  0.71790700  1
  Mg  Mg95  1  0.25353300  0.89466200  0.71780700  1
  Mg  Mg96  1  0.65203900  0.91157800  0.70089200  1
  Mg  Mg97  1  0.68547200  0.54780000  0.73482300  1
  Mg  Mg98  1  0.21875600  0.42968900  0.76785700  1
  Mg  Mg99  1  0.41875600  0.47968900  0.71785700  1
  Mg  Mg100  1  0.61338300  0.66677800  0.79420000  1
  Mg  Mg101  1  0.12412800  0.64260000  0.79151400  1
  Mg  Mg102  1  0.32412800  0.69260000  0.74151400  1
  Mg  Mg103  1  0.81338300  0.71677800  0.74420000  1
  Mg  Mg104  1  0.38397800  0.01471500  0.76790700  1
  Mg  Mg105  1  0.55353300  0.34466200  0.76780700  1
  Mg  Mg106  1  0.95203900  0.36157800  0.75089200  1
  Mg  Mg107  1  0.98547200  0.99780000  0.78482300  1
  Mg  Mg108  1  0.91875600  0.97968900  0.71785700  1
  Mg  Mg109  1  0.71875600  0.92968900  0.76785700  1
  Mg  Mg110  1  0.31338300  0.21677800  0.74420000  1
  Mg  Mg111  1  0.82412800  0.19260000  0.74151400  1
  Mg  Mg112  1  0.62412800  0.14260000  0.79151400  1
  Mg  Mg113  1  0.11338300  0.16677800  0.79420000  1
  In  In114  1  0.42664400  0.03840500  0.28117800  1
  In  In115  1  0.51086700  0.32097200  0.25453600  1
  In  In116  1  0.02427400  0.31873800  0.25677100  1
  In  In117  1  0.91323700  0.04064000  0.27894400  1
  In  In118  1  0.02664400  0.93840500  0.38117800  1
  In  In119  1  0.11086700  0.22097200  0.35453600  1
  In  In120  1  0.62427400  0.21873800  0.35677100  1
  In  In121  1  0.51323700  0.94064000  0.37894400  1
  In  In122  1  0.72664400  0.48840500  0.33117800  1
  In  In123  1  0.81086700  0.77097200  0.30453600  1
  In  In124  1  0.32427400  0.76873800  0.30677100  1
  In  In125  1  0.21323700  0.49064000  0.32894400  1
  In  In126  1  0.62664400  0.83840500  0.48117800  1
  In  In127  1  0.71086700  0.12097200  0.45453600  1
  In  In128  1  0.22427400  0.11873800  0.45677100  1
  In  In129  1  0.11323700  0.84064000  0.47894400  1
  In  In130  1  0.32664400  0.38840500  0.43117800  1
  In  In131  1  0.41086700  0.67097200  0.40453600  1
  In  In132  1  0.92427400  0.66873800  0.40677100  1
  In  In133  1  0.81323700  0.39064000  0.42894400  1
  In  In134  1  0.22664400  0.73840500  0.58117800  1
  In  In135  1  0.31086700  0.02097200  0.55453600  1
  In  In136  1  0.82427400  0.01873800  0.55677100  1
  In  In137  1  0.71323700  0.74064000  0.57894400  1
  In  In138  1  0.92664400  0.28840500  0.53117800  1
  In  In139  1  0.01086700  0.57097200  0.50453600  1
  In  In140  1  0.52427400  0.56873800  0.50677100  1
  In  In141  1  0.41323700  0.29064000  0.52894400  1
  In  In142  1  0.82664400  0.63840500  0.68117800  1
  In  In143  1  0.91086700  0.92097200  0.65453600  1
  In  In144  1  0.42427400  0.91873800  0.65677100  1
  In  In145  1  0.31323700  0.64064000  0.67894400  1
  In  In146  1  0.52664400  0.18840500  0.63117800  1
  In  In147  1  0.61086700  0.47097200  0.60453600  1
  In  In148  1  0.12427400  0.46873800  0.60677100  1
  In  In149  1  0.01323700  0.19064000  0.62894400  1
  In  In150  1  0.42664400  0.53840500  0.78117800  1
  In  In151  1  0.51086700  0.82097200  0.75453600  1
  In  In152  1  0.02427400  0.81873800  0.75677100  1
  In  In153  1  0.91323700  0.54064000  0.77894400  1
  In  In154  1  0.12664400  0.08840500  0.73117800  1
  In  In155  1  0.21086700  0.37097200  0.70453600  1
  In  In156  1  0.72427400  0.36873800  0.70677100  1
  In  In157  1  0.61323700  0.09064000  0.72894400  1
