# generated using pymatgen
data_Ce11Mg12
_symmetry_space_group_name_H-M   'P 1'
_cell_length_a   3.48032000
_cell_length_b   14.23446182
_cell_length_c   42.27697200
_cell_angle_alpha   93.36093517
_cell_angle_beta   90.00000000
_cell_angle_gamma   90.00000000
_symmetry_Int_Tables_number   1
_chemical_formula_structural   Ce11Mg12
_chemical_formula_sum   'Ce22 Mg24'
_cell_volume   2090.81923894
_cell_formula_units_Z   2
loop_
 _symmetry_equiv_pos_site_id
 _symmetry_equiv_pos_as_xyz
  1  'x, y, z'
loop_
 _atom_site_type_symbol
 _atom_site_label
 _atom_site_symmetry_multiplicity
 _atom_site_fract_x
 _atom_site_fract_y
 _atom_site_fract_z
 _atom_site_occupancy
  Ce  Ce0  1  0.00000000  0.00923900  0.24585400  1
  Ce  Ce1  1  0.50000000  0.89922600  0.27914600  1
  Ce  Ce2  1  0.50000000  0.65923900  0.29585400  1
  Ce  Ce3  1  0.00000000  0.54922600  0.32914600  1
  Ce  Ce4  1  1.00000000  0.30923900  0.34585400  1
  Ce  Ce5  1  0.50000000  0.19922600  0.37914600  1
  Ce  Ce6  1  0.50000000  0.95923900  0.39585400  1
  Ce  Ce7  1  0.00000000  0.84922600  0.42914600  1
  Ce  Ce8  1  0.00000000  0.60923900  0.44585400  1
  Ce  Ce9  1  0.50000000  0.49922600  0.47914600  1
  Ce  Ce10  1  0.50000000  0.25923900  0.49585400  1
  Ce  Ce11  1  0.00000000  0.14922600  0.52914600  1
  Ce  Ce12  1  0.00000000  0.90923900  0.54585400  1
  Ce  Ce13  1  0.50000000  0.79922600  0.57914600  1
  Ce  Ce14  1  0.50000000  0.55923900  0.59585400  1
  Ce  Ce15  1  0.00000000  0.44922600  0.62914600  1
  Ce  Ce16  1  0.00000000  0.20923900  0.64585400  1
  Ce  Ce17  1  0.50000000  0.09922600  0.67914600  1
  Ce  Ce18  1  0.50000000  0.85923900  0.69585400  1
  Ce  Ce19  1  0.00000000  0.74922600  0.72914600  1
  Ce  Ce20  1  1.00000000  0.50923900  0.74585400  1
  Ce  Ce21  1  0.50000000  0.39922600  0.77914600  1
  Mg  Mg22  1  0.50000000  0.39120000  0.28200900  1
  Mg  Mg23  1  0.00000000  0.51726600  0.24299100  1
  Mg  Mg24  1  1.00000000  0.74120000  0.23200900  1
  Mg  Mg25  1  0.50000000  0.16726600  0.29299100  1
  Mg  Mg26  1  0.50000000  0.69120000  0.38200900  1
  Mg  Mg27  1  1.00000000  0.81726600  0.34299100  1
  Mg  Mg28  1  0.00000000  0.04120000  0.33200900  1
  Mg  Mg29  1  0.50000000  0.46726600  0.39299100  1
  Mg  Mg30  1  0.50000000  0.99120000  0.48200900  1
  Mg  Mg31  1  0.00000000  0.11726600  0.44299100  1
  Mg  Mg32  1  0.00000000  0.34120000  0.43200900  1
  Mg  Mg33  1  0.50000000  0.76726600  0.49299100  1
  Mg  Mg34  1  0.50000000  0.29120000  0.58200900  1
  Mg  Mg35  1  1.00000000  0.41726600  0.54299100  1
  Mg  Mg36  1  0.00000000  0.64120000  0.53200900  1
  Mg  Mg37  1  0.50000000  0.06726600  0.59299100  1
  Mg  Mg38  1  0.50000000  0.59120000  0.68200900  1
  Mg  Mg39  1  0.00000000  0.71726600  0.64299100  1
  Mg  Mg40  1  0.00000000  0.94120000  0.63200900  1
  Mg  Mg41  1  0.50000000  0.36726600  0.69299100  1
  Mg  Mg42  1  0.50000000  0.89120000  0.78200900  1
  Mg  Mg43  1  1.00000000  0.01726600  0.74299100  1
  Mg  Mg44  1  0.00000000  0.24120000  0.73200900  1
  Mg  Mg45  1  0.50000000  0.66726600  0.79299100  1
