# generated using pymatgen
data_Ho30Mg11
_symmetry_space_group_name_H-M   'P 1'
_cell_length_a   4.95026525
_cell_length_b   10.15564464
_cell_length_c   43.21464900
_cell_angle_alpha   92.53203099
_cell_angle_beta   93.28343067
_cell_angle_gamma   75.89380586
_symmetry_Int_Tables_number   1
_chemical_formula_structural   Ho30Mg11
_chemical_formula_sum   'Ho30 Mg11'
_cell_volume   2102.54094421
_cell_formula_units_Z   1
loop_
 _symmetry_equiv_pos_site_id
 _symmetry_equiv_pos_as_xyz
  1  'x, y, z'
loop_
 _atom_site_type_symbol
 _atom_site_label
 _atom_site_symmetry_multiplicity
 _atom_site_fract_x
 _atom_site_fract_y
 _atom_site_fract_z
 _atom_site_occupancy
  Ho  Ho0  1  0.77052800  0.66969000  0.28532600  1
  Ho  Ho1  1  0.38647200  0.42330900  0.27083300  1
  Ho  Ho2  1  0.00241700  0.17692800  0.25634000  1
  Ho  Ho3  1  0.32608400  0.61413500  0.34088200  1
  Ho  Ho4  1  0.94202800  0.36775300  0.32638900  1
  Ho  Ho5  1  0.55797200  0.12137200  0.31189600  1
  Ho  Ho6  1  0.88163900  0.55857900  0.39643700  1
  Ho  Ho7  1  0.49758300  0.31219800  0.38194400  1
  Ho  Ho8  1  0.11352800  0.06581700  0.36745100  1
  Ho  Ho9  1  0.43719500  0.50302400  0.45199300  1
  Ho  Ho10  1  0.05313900  0.25664200  0.43750000  1
  Ho  Ho11  1  0.66908300  0.01026100  0.42300700  1
  Ho  Ho12  1  0.99275000  0.44746800  0.50754900  1
  Ho  Ho13  1  0.60869500  0.20108700  0.49305600  1
  Ho  Ho14  1  0.22463900  0.95470500  0.47856300  1
  Ho  Ho15  1  0.54830600  0.39191300  0.56310400  1
  Ho  Ho16  1  0.16425000  0.14553100  0.54861100  1
  Ho  Ho17  1  0.78019400  0.89915000  0.53411800  1
  Ho  Ho18  1  0.10386200  0.33635700  0.61866000  1
  Ho  Ho19  1  0.71980600  0.08997600  0.60416700  1
  Ho  Ho20  1  0.33575000  0.84359400  0.58967400  1
  Ho  Ho21  1  0.65941700  0.28080200  0.67421500  1
  Ho  Ho22  1  0.27536100  0.03442000  0.65972200  1
  Ho  Ho23  1  0.89130500  0.78803900  0.64522900  1
  Ho  Ho24  1  0.21497300  0.22524600  0.72977100  1
  Ho  Ho25  1  0.83091700  0.97886500  0.71527800  1
  Ho  Ho26  1  0.44686100  0.73248300  0.70078500  1
  Ho  Ho27  1  0.77052800  0.16969000  0.78532600  1
  Ho  Ho28  1  0.38647200  0.92330900  0.77083300  1
  Ho  Ho29  1  0.00241700  0.67692800  0.75634000  1
  Mg  Mg30  1  0.60869500  0.95108700  0.24305600  1
  Mg  Mg31  1  0.16425000  0.89553100  0.29861100  1
  Mg  Mg32  1  0.71980600  0.83997600  0.35416700  1
  Mg  Mg33  1  0.27536100  0.78442000  0.40972200  1
  Mg  Mg34  1  0.83091700  0.72886500  0.46527800  1
  Mg  Mg35  1  0.38647200  0.67330900  0.52083300  1
  Mg  Mg36  1  0.94202800  0.61775300  0.57638900  1
  Mg  Mg37  1  0.49758300  0.56219800  0.63194400  1
  Mg  Mg38  1  0.05313900  0.50664200  0.68750000  1
  Mg  Mg39  1  0.60869500  0.45108700  0.74305600  1
  Mg  Mg40  1  0.16425000  0.39553100  0.79861100  1
