# generated using pymatgen
data_Mg4Zn7
_symmetry_space_group_name_H-M   'P 1'
_cell_length_a   13.26606209
_cell_length_b   14.70723619
_cell_length_c   50.02254400
_cell_angle_alpha   94.04592358
_cell_angle_beta   85.51984715
_cell_angle_gamma   104.27395804
_symmetry_Int_Tables_number   1
_chemical_formula_structural   Mg4Zn7
_chemical_formula_sum   'Mg104 Zn182'
_cell_volume   9416.24948960
_cell_formula_units_Z   26
loop_
 _symmetry_equiv_pos_site_id
 _symmetry_equiv_pos_as_xyz
  1  'x, y, z'
loop_
 _atom_site_type_symbol
 _atom_site_label
 _atom_site_symmetry_multiplicity
 _atom_site_fract_x
 _atom_site_fract_y
 _atom_site_fract_z
 _atom_site_occupancy
  Mg  Mg0  1  0.80342900  0.95641800  0.28398400  1
  Mg  Mg1  1  0.88446800  0.60215500  0.28839200  1
  Mg  Mg2  1  0.02365200  0.04358200  0.29601600  1
  Mg  Mg3  1  0.94261400  0.39784500  0.29160800  1
  Mg  Mg4  1  0.62496600  0.89982000  0.32758000  1
  Mg  Mg5  1  0.92890500  0.71342500  0.34387000  1
  Mg  Mg6  1  0.44328500  0.35231700  0.37003500  1
  Mg  Mg7  1  0.70342900  0.95641800  0.38398400  1
  Mg  Mg8  1  0.78446800  0.60215500  0.38839200  1
  Mg  Mg9  1  0.45696500  0.02805300  0.31832700  1
  Mg  Mg10  1  0.54598600  0.57654400  0.37609000  1
  Mg  Mg11  1  0.92365200  0.04358200  0.39601600  1
  Mg  Mg12  1  0.52465400  0.67618400  0.32225000  1
  Mg  Mg13  1  0.84261400  0.39784500  0.39160800  1
  Mg  Mg14  1  0.28379700  0.64768300  0.30996500  1
  Mg  Mg15  1  0.20242800  0.32381600  0.35775000  1
  Mg  Mg16  1  0.87632900  0.90491200  0.34082100  1
  Mg  Mg17  1  0.56102700  0.25117100  0.32411000  1
  Mg  Mg18  1  0.16605400  0.74882900  0.35589000  1
  Mg  Mg19  1  0.18109600  0.42345600  0.30391000  1
  Mg  Mg20  1  0.10211500  0.10018000  0.35242000  1
  Mg  Mg21  1  0.27011600  0.97194700  0.36167300  1
  Mg  Mg22  1  0.79817700  0.28657500  0.33613000  1
  Mg  Mg23  1  0.85075200  0.09508800  0.33917900  1
  Mg  Mg24  1  0.52496600  0.89982000  0.42758000  1
  Mg  Mg25  1  0.82890500  0.71342500  0.44387000  1
  Mg  Mg26  1  0.34328500  0.35231700  0.47003500  1
  Mg  Mg27  1  0.60342900  0.95641800  0.48398400  1
  Mg  Mg28  1  0.68446800  0.60215500  0.48839200  1
  Mg  Mg29  1  0.35696500  0.02805300  0.41832700  1
  Mg  Mg30  1  0.44598600  0.57654400  0.47609000  1
  Mg  Mg31  1  0.82365200  0.04358200  0.49601600  1
  Mg  Mg32  1  0.42465400  0.67618400  0.42225000  1
  Mg  Mg33  1  0.74261400  0.39784500  0.49160800  1
  Mg  Mg34  1  0.18379700  0.64768300  0.40996500  1
  Mg  Mg35  1  0.10242800  0.32381600  0.45775000  1
  Mg  Mg36  1  0.77632900  0.90491200  0.44082100  1
  Mg  Mg37  1  0.46102700  0.25117100  0.42411000  1
  Mg  Mg38  1  0.06605400  0.74882900  0.45589000  1
  Mg  Mg39  1  0.08109600  0.42345600  0.40391000  1
  Mg  Mg40  1  0.00211500  0.10018000  0.45242000  1
  Mg  Mg41  1  0.17011600  0.97194700  0.46167300  1
  Mg  Mg42  1  0.69817700  0.28657500  0.43613000  1
  Mg  Mg43  1  0.75075200  0.09508800  0.43917900  1
  Mg  Mg44  1  0.42496600  0.89982000  0.52758000  1
  Mg  Mg45  1  0.72890500  0.71342500  0.54387000  1
  Mg  Mg46  1  0.24328500  0.35231700  0.57003500  1
  Mg  Mg47  1  0.50342900  0.95641800  0.58398400  1
  Mg  Mg48  1  0.58446800  0.60215500  0.58839200  1
  Mg  Mg49  1  0.25696500  0.02805300  0.51832700  1
  Mg  Mg50  1  0.34598600  0.57654400  0.57609000  1
  Mg  Mg51  1  0.72365200  0.04358200  0.59601600  1
  Mg  Mg52  1  0.32465400  0.67618400  0.52225000  1
  Mg  Mg53  1  0.64261400  0.39784500  0.59160800  1
  Mg  Mg54  1  0.08379700  0.64768300  0.50996500  1
  Mg  Mg55  1  0.00242800  0.32381600  0.55775000  1
  Mg  Mg56  1  0.67632900  0.90491200  0.54082100  1
  Mg  Mg57  1  0.36102700  0.25117100  0.52411000  1
  Mg  Mg58  1  0.96605400  0.74882900  0.55589000  1
  Mg  Mg59  1  0.98109600  0.42345600  0.50391000  1
  Mg  Mg60  1  0.90211500  0.10018000  0.55242000  1
  Mg  Mg61  1  0.07011600  0.97194700  0.56167300  1
  Mg  Mg62  1  0.59817700  0.28657500  0.53613000  1
  Mg  Mg63  1  0.65075200  0.09508800  0.53917900  1
  Mg  Mg64  1  0.32496600  0.89982000  0.62758000  1
  Mg  Mg65  1  0.62890500  0.71342500  0.64387000  1
  Mg  Mg66  1  0.14328500  0.35231700  0.67003500  1
  Mg  Mg67  1  0.40342900  0.95641800  0.68398400  1
  Mg  Mg68  1  0.48446800  0.60215500  0.68839200  1
  Mg  Mg69  1  0.15696500  0.02805300  0.61832700  1
  Mg  Mg70  1  0.24598600  0.57654400  0.67609000  1
  Mg  Mg71  1  0.62365200  0.04358200  0.69601600  1
  Mg  Mg72  1  0.22465400  0.67618400  0.62225000  1
  Mg  Mg73  1  0.54261400  0.39784500  0.69160800  1
  Mg  Mg74  1  0.98379700  0.64768300  0.60996500  1
  Mg  Mg75  1  0.90242800  0.32381600  0.65775000  1
  Mg  Mg76  1  0.57632900  0.90491200  0.64082100  1
  Mg  Mg77  1  0.26102700  0.25117100  0.62411000  1
  Mg  Mg78  1  0.86605400  0.74882900  0.65589000  1
  Mg  Mg79  1  0.88109600  0.42345600  0.60391000  1
  Mg  Mg80  1  0.80211500  0.10018000  0.65242000  1
  Mg  Mg81  1  0.97011600  0.97194700  0.66167300  1
  Mg  Mg82  1  0.49817700  0.28657500  0.63613000  1
  Mg  Mg83  1  0.55075200  0.09508800  0.63917900  1
  Mg  Mg84  1  0.22496600  0.89982000  0.72758000  1
  Mg  Mg85  1  0.52890500  0.71342500  0.74387000  1
  Mg  Mg86  1  0.04328500  0.35231700  0.77003500  1
  Mg  Mg87  1  0.30342900  0.95641800  0.78398400  1
  Mg  Mg88  1  0.38446800  0.60215500  0.78839200  1
  Mg  Mg89  1  0.05696500  0.02805300  0.71832700  1
  Mg  Mg90  1  0.14598600  0.57654400  0.77609000  1
  Mg  Mg91  1  0.52365200  0.04358200  0.79601600  1
  Mg  Mg92  1  0.12465400  0.67618400  0.72225000  1
  Mg  Mg93  1  0.44261400  0.39784500  0.79160800  1
  Mg  Mg94  1  0.88379700  0.64768300  0.70996500  1
  Mg  Mg95  1  0.80242800  0.32381600  0.75775000  1
  Mg  Mg96  1  0.47632900  0.90491200  0.74082100  1
  Mg  Mg97  1  0.16102700  0.25117100  0.72411000  1
  Mg  Mg98  1  0.76605400  0.74882900  0.75589000  1
  Mg  Mg99  1  0.78109600  0.42345600  0.70391000  1
  Mg  Mg100  1  0.70211500  0.10018000  0.75242000  1
  Mg  Mg101  1  0.87011600  0.97194700  0.76167300  1
  Mg  Mg102  1  0.39817700  0.28657500  0.73613000  1
  Mg  Mg103  1  0.45075200  0.09508800  0.73917900  1
  Zn  Zn104  1  0.94743800  0.81738700  0.29186100  1
  Zn  Zn105  1  0.41354100  0.50000000  0.29000000  1
  Zn  Zn106  1  0.44253000  0.82447600  0.29188500  1
  Zn  Zn107  1  0.73247000  0.26762300  0.27989000  1
  Zn  Zn108  1  0.87964400  0.18261300  0.28813900  1
  Zn  Zn109  1  0.09461200  0.73237700  0.30011000  1
  Zn  Zn110  1  0.38455200  0.17552400  0.28811500  1
  Zn  Zn111  1  0.71987600  0.59229000  0.33287000  1
  Zn  Zn112  1  0.84743800  0.81738700  0.39186100  1
  Zn  Zn113  1  0.35180100  0.66285200  0.36532800  1
  Zn  Zn114  1  0.02597500  0.24831100  0.32229700  1
  Zn  Zn115  1  0.00769400  0.57676400  0.37441300  1
  Zn  Zn116  1  0.75463800  0.75046900  0.30826300  1
  Zn  Zn117  1  0.31354100  0.50000000  0.39000000  1
  Zn  Zn118  1  0.00720600  0.40771000  0.34713000  1
  Zn  Zn119  1  0.26984100  0.86290600  0.30866800  1
  Zn  Zn120  1  0.66838900  0.42312300  0.35621000  1
  Zn  Zn121  1  0.34253000  0.82447600  0.39188500  1
  Zn  Zn122  1  0.48932500  0.96319600  0.37302800  1
  Zn  Zn123  1  0.54337700  0.46639900  0.32310500  1
  Zn  Zn124  1  0.63247000  0.26762300  0.37989000  1
  Zn  Zn125  1  0.77964400  0.18261300  0.38813900  1
  Zn  Zn126  1  0.45724100  0.13709400  0.37133200  1
  Zn  Zn127  1  0.63833800  0.09965700  0.35350000  1
  Zn  Zn128  1  0.05869300  0.57687700  0.32379000  1
  Zn  Zn129  1  0.97244300  0.24953100  0.37173700  1
  Zn  Zn130  1  0.18370500  0.53360100  0.35689500  1
  Zn  Zn131  1  0.08874400  0.90034300  0.32650000  1
  Zn  Zn132  1  0.71938800  0.42323600  0.30558700  1
  Zn  Zn133  1  0.36354100  0.50000000  0.34000000  1
  Zn  Zn134  1  0.52525500  0.78453800  0.37541100  1
  Zn  Zn135  1  0.39150600  0.82500200  0.34140300  1
  Zn  Zn136  1  0.68950700  0.09783900  0.30497200  1
  Zn  Zn137  1  0.20182700  0.21546200  0.30458900  1
  Zn  Zn138  1  0.03757500  0.90216100  0.37502800  1
  Zn  Zn139  1  0.99461200  0.73237700  0.40011000  1
  Zn  Zn140  1  0.33557500  0.17499800  0.33859700  1
  Zn  Zn141  1  0.70110700  0.75168900  0.35770300  1
  Zn  Zn142  1  0.86354100  0.50000000  0.34000000  1
  Zn  Zn143  1  0.28455200  0.17552400  0.38811500  1
  Zn  Zn144  1  0.23775700  0.03680400  0.30697200  1
  Zn  Zn145  1  0.37528000  0.33714800  0.31467200  1
  Zn  Zn146  1  0.61987600  0.59229000  0.43287000  1
  Zn  Zn147  1  0.74743800  0.81738700  0.49186100  1
  Zn  Zn148  1  0.25180100  0.66285200  0.46532800  1
  Zn  Zn149  1  0.92597500  0.24831100  0.42229700  1
  Zn  Zn150  1  0.90769400  0.57676400  0.47441300  1
  Zn  Zn151  1  0.65463800  0.75046900  0.40826300  1
  Zn  Zn152  1  0.21354100  0.50000000  0.49000000  1
  Zn  Zn153  1  0.90720600  0.40771000  0.44713000  1
  Zn  Zn154  1  0.16984100  0.86290600  0.40866800  1
  Zn  Zn155  1  0.56838900  0.42312300  0.45621000  1
  Zn  Zn156  1  0.24253000  0.82447600  0.49188500  1
  Zn  Zn157  1  0.38932500  0.96319600  0.47302800  1
  Zn  Zn158  1  0.44337700  0.46639900  0.42310500  1
  Zn  Zn159  1  0.53247000  0.26762300  0.47989000  1
  Zn  Zn160  1  0.67964400  0.18261300  0.48813900  1
  Zn  Zn161  1  0.35724100  0.13709400  0.47133200  1
  Zn  Zn162  1  0.53833800  0.09965700  0.45350000  1
  Zn  Zn163  1  0.95869300  0.57687700  0.42379000  1
  Zn  Zn164  1  0.87244300  0.24953100  0.47173700  1
  Zn  Zn165  1  0.08370500  0.53360100  0.45689500  1
  Zn  Zn166  1  0.98874400  0.90034300  0.42650000  1
  Zn  Zn167  1  0.61938800  0.42323600  0.40558700  1
  Zn  Zn168  1  0.26354100  0.50000000  0.44000000  1
  Zn  Zn169  1  0.42525500  0.78453800  0.47541100  1
  Zn  Zn170  1  0.29150600  0.82500200  0.44140300  1
  Zn  Zn171  1  0.58950700  0.09783900  0.40497200  1
  Zn  Zn172  1  0.10182700  0.21546200  0.40458900  1
  Zn  Zn173  1  0.93757500  0.90216100  0.47502800  1
  Zn  Zn174  1  0.89461200  0.73237700  0.50011000  1
  Zn  Zn175  1  0.23557500  0.17499800  0.43859700  1
  Zn  Zn176  1  0.60110700  0.75168900  0.45770300  1
  Zn  Zn177  1  0.76354100  0.50000000  0.44000000  1
  Zn  Zn178  1  0.18455200  0.17552400  0.48811500  1
  Zn  Zn179  1  0.13775700  0.03680400  0.40697200  1
  Zn  Zn180  1  0.27528000  0.33714800  0.41467200  1
  Zn  Zn181  1  0.51987600  0.59229000  0.53287000  1
  Zn  Zn182  1  0.64743800  0.81738700  0.59186100  1
  Zn  Zn183  1  0.15180100  0.66285200  0.56532800  1
  Zn  Zn184  1  0.82597500  0.24831100  0.52229700  1
  Zn  Zn185  1  0.80769400  0.57676400  0.57441300  1
  Zn  Zn186  1  0.55463800  0.75046900  0.50826300  1
  Zn  Zn187  1  0.11354100  0.50000000  0.59000000  1
  Zn  Zn188  1  0.80720600  0.40771000  0.54713000  1
  Zn  Zn189  1  0.06984100  0.86290600  0.50866800  1
  Zn  Zn190  1  0.46838900  0.42312300  0.55621000  1
  Zn  Zn191  1  0.14253000  0.82447600  0.59188500  1
  Zn  Zn192  1  0.28932500  0.96319600  0.57302800  1
  Zn  Zn193  1  0.34337700  0.46639900  0.52310500  1
  Zn  Zn194  1  0.43247000  0.26762300  0.57989000  1
  Zn  Zn195  1  0.57964400  0.18261300  0.58813900  1
  Zn  Zn196  1  0.25724100  0.13709400  0.57133200  1
  Zn  Zn197  1  0.43833800  0.09965700  0.55350000  1
  Zn  Zn198  1  0.85869300  0.57687700  0.52379000  1
  Zn  Zn199  1  0.77244300  0.24953100  0.57173700  1
  Zn  Zn200  1  0.98370500  0.53360100  0.55689500  1
  Zn  Zn201  1  0.88874400  0.90034300  0.52650000  1
  Zn  Zn202  1  0.51938800  0.42323600  0.50558700  1
  Zn  Zn203  1  0.16354100  0.50000000  0.54000000  1
  Zn  Zn204  1  0.32525500  0.78453800  0.57541100  1
  Zn  Zn205  1  0.19150600  0.82500200  0.54140300  1
  Zn  Zn206  1  0.48950700  0.09783900  0.50497200  1
  Zn  Zn207  1  0.00182700  0.21546200  0.50458900  1
  Zn  Zn208  1  0.83757500  0.90216100  0.57502800  1
  Zn  Zn209  1  0.79461200  0.73237700  0.60011000  1
  Zn  Zn210  1  0.13557500  0.17499800  0.53859700  1
  Zn  Zn211  1  0.50110700  0.75168900  0.55770300  1
  Zn  Zn212  1  0.66354100  0.50000000  0.54000000  1
  Zn  Zn213  1  0.08455200  0.17552400  0.58811500  1
  Zn  Zn214  1  0.03775700  0.03680400  0.50697200  1
  Zn  Zn215  1  0.17528000  0.33714800  0.51467200  1
  Zn  Zn216  1  0.41987600  0.59229000  0.63287000  1
  Zn  Zn217  1  0.54743800  0.81738700  0.69186100  1
  Zn  Zn218  1  0.05180100  0.66285200  0.66532800  1
  Zn  Zn219  1  0.72597500  0.24831100  0.62229700  1
  Zn  Zn220  1  0.70769400  0.57676400  0.67441300  1
  Zn  Zn221  1  0.45463800  0.75046900  0.60826300  1
  Zn  Zn222  1  0.01354100  0.50000000  0.69000000  1
  Zn  Zn223  1  0.70720600  0.40771000  0.64713000  1
  Zn  Zn224  1  0.96984100  0.86290600  0.60866800  1
  Zn  Zn225  1  0.36838900  0.42312300  0.65621000  1
  Zn  Zn226  1  0.04253000  0.82447600  0.69188500  1
  Zn  Zn227  1  0.18932500  0.96319600  0.67302800  1
  Zn  Zn228  1  0.24337700  0.46639900  0.62310500  1
  Zn  Zn229  1  0.33247000  0.26762300  0.67989000  1
  Zn  Zn230  1  0.47964400  0.18261300  0.68813900  1
  Zn  Zn231  1  0.15724100  0.13709400  0.67133200  1
  Zn  Zn232  1  0.33833800  0.09965700  0.65350000  1
  Zn  Zn233  1  0.75869300  0.57687700  0.62379000  1
  Zn  Zn234  1  0.67244300  0.24953100  0.67173700  1
  Zn  Zn235  1  0.88370500  0.53360100  0.65689500  1
  Zn  Zn236  1  0.78874400  0.90034300  0.62650000  1
  Zn  Zn237  1  0.41938800  0.42323600  0.60558700  1
  Zn  Zn238  1  0.06354100  0.50000000  0.64000000  1
  Zn  Zn239  1  0.22525500  0.78453800  0.67541100  1
  Zn  Zn240  1  0.09150600  0.82500200  0.64140300  1
  Zn  Zn241  1  0.38950700  0.09783900  0.60497200  1
  Zn  Zn242  1  0.90182700  0.21546200  0.60458900  1
  Zn  Zn243  1  0.73757500  0.90216100  0.67502800  1
  Zn  Zn244  1  0.69461200  0.73237700  0.70011000  1
  Zn  Zn245  1  0.03557500  0.17499800  0.63859700  1
  Zn  Zn246  1  0.40110700  0.75168900  0.65770300  1
  Zn  Zn247  1  0.56354100  0.50000000  0.64000000  1
  Zn  Zn248  1  0.98455200  0.17552400  0.68811500  1
  Zn  Zn249  1  0.93775700  0.03680400  0.60697200  1
  Zn  Zn250  1  0.07528000  0.33714800  0.61467200  1
  Zn  Zn251  1  0.31987600  0.59229000  0.73287000  1
  Zn  Zn252  1  0.44743800  0.81738700  0.79186100  1
  Zn  Zn253  1  0.95180100  0.66285200  0.76532800  1
  Zn  Zn254  1  0.62597500  0.24831100  0.72229700  1
  Zn  Zn255  1  0.60769400  0.57676400  0.77441300  1
  Zn  Zn256  1  0.35463800  0.75046900  0.70826300  1
  Zn  Zn257  1  0.91354100  0.50000000  0.79000000  1
  Zn  Zn258  1  0.60720600  0.40771000  0.74713000  1
  Zn  Zn259  1  0.86984100  0.86290600  0.70866800  1
  Zn  Zn260  1  0.26838900  0.42312300  0.75621000  1
  Zn  Zn261  1  0.94253000  0.82447600  0.79188500  1
  Zn  Zn262  1  0.08932500  0.96319600  0.77302800  1
  Zn  Zn263  1  0.14337700  0.46639900  0.72310500  1
  Zn  Zn264  1  0.23247000  0.26762300  0.77989000  1
  Zn  Zn265  1  0.37964400  0.18261300  0.78813900  1
  Zn  Zn266  1  0.05724100  0.13709400  0.77133200  1
  Zn  Zn267  1  0.23833800  0.09965700  0.75350000  1
  Zn  Zn268  1  0.65869300  0.57687700  0.72379000  1
  Zn  Zn269  1  0.57244300  0.24953100  0.77173700  1
  Zn  Zn270  1  0.78370500  0.53360100  0.75689500  1
  Zn  Zn271  1  0.68874400  0.90034300  0.72650000  1
  Zn  Zn272  1  0.31938800  0.42323600  0.70558700  1
  Zn  Zn273  1  0.96354100  0.50000000  0.74000000  1
  Zn  Zn274  1  0.12525500  0.78453800  0.77541100  1
  Zn  Zn275  1  0.99150600  0.82500200  0.74140300  1
  Zn  Zn276  1  0.28950700  0.09783900  0.70497200  1
  Zn  Zn277  1  0.80182700  0.21546200  0.70458900  1
  Zn  Zn278  1  0.63757500  0.90216100  0.77502800  1
  Zn  Zn279  1  0.59461200  0.73237700  0.80011000  1
  Zn  Zn280  1  0.93557500  0.17499800  0.73859700  1
  Zn  Zn281  1  0.30110700  0.75168900  0.75770300  1
  Zn  Zn282  1  0.46354100  0.50000000  0.74000000  1
  Zn  Zn283  1  0.88455200  0.17552400  0.78811500  1
  Zn  Zn284  1  0.83775700  0.03680400  0.70697200  1
  Zn  Zn285  1  0.97528000  0.33714800  0.71467200  1
