# generated using pymatgen
data_Mg19Sc10
_symmetry_space_group_name_H-M   'P 1'
_cell_length_a   6.13971348
_cell_length_b   8.45453099
_cell_length_c   43.60291500
_cell_angle_alpha   91.24883666
_cell_angle_beta   92.80791751
_cell_angle_gamma   95.84591880
_symmetry_Int_Tables_number   1
_chemical_formula_structural   Mg19Sc10
_chemical_formula_sum   'Mg38 Sc20'
_cell_volume   2248.06610484
_cell_formula_units_Z   2
loop_
 _symmetry_equiv_pos_site_id
 _symmetry_equiv_pos_as_xyz
  1  'x, y, z'
loop_
 _atom_site_type_symbol
 _atom_site_label
 _atom_site_symmetry_multiplicity
 _atom_site_fract_x
 _atom_site_fract_y
 _atom_site_fract_z
 _atom_site_occupancy
  Mg  Mg0  1  0.00664700  0.46805400  0.24834200  1
  Mg  Mg1  1  0.17331300  0.75971300  0.20667600  1
  Mg  Mg2  1  0.57671900  0.01111300  0.23082400  1
  Mg  Mg3  1  0.66005400  0.65695400  0.20999100  1
  Mg  Mg4  1  0.75664700  0.53055400  0.31084200  1
  Mg  Mg5  1  0.92331300  0.82221300  0.26917600  1
  Mg  Mg6  1  0.32671900  0.07361300  0.29332400  1
  Mg  Mg7  1  0.41005400  0.71945400  0.27249100  1
  Mg  Mg8  1  0.50664700  0.59305400  0.37334200  1
  Mg  Mg9  1  0.67331300  0.88471300  0.33167600  1
  Mg  Mg10  1  0.07671900  0.13611300  0.35582400  1
  Mg  Mg11  1  0.16005400  0.78195400  0.33499100  1
  Mg  Mg12  1  0.25664700  0.65555400  0.43584200  1
  Mg  Mg13  1  0.42331300  0.94721300  0.39417600  1
  Mg  Mg14  1  0.82671900  0.19861300  0.41832400  1
  Mg  Mg15  1  0.91005400  0.84445400  0.39749100  1
  Mg  Mg16  1  0.00664700  0.71805400  0.49834200  1
  Mg  Mg17  1  0.17331300  0.00971300  0.45667600  1
  Mg  Mg18  1  0.57671900  0.26111300  0.48082400  1
  Mg  Mg19  1  0.66005400  0.90695400  0.45999100  1
  Mg  Mg20  1  0.75664700  0.78055400  0.56084200  1
  Mg  Mg21  1  0.92331300  0.07221300  0.51917600  1
  Mg  Mg22  1  0.32671900  0.32361300  0.54332400  1
  Mg  Mg23  1  0.41005400  0.96945400  0.52249100  1
  Mg  Mg24  1  0.50664700  0.84305400  0.62334200  1
  Mg  Mg25  1  0.67331300  0.13471300  0.58167600  1
  Mg  Mg26  1  0.07671900  0.38611300  0.60582400  1
  Mg  Mg27  1  0.16005400  0.03195400  0.58499100  1
  Mg  Mg28  1  0.25664700  0.90555400  0.68584200  1
  Mg  Mg29  1  0.42331300  0.19721300  0.64417600  1
  Mg  Mg30  1  0.82671900  0.44861300  0.66832400  1
  Mg  Mg31  1  0.91005400  0.09445400  0.64749100  1
  Mg  Mg32  1  0.00664700  0.96805400  0.74834200  1
  Mg  Mg33  1  0.17331300  0.25971300  0.70667600  1
  Mg  Mg34  1  0.57671900  0.51111300  0.73082400  1
  Mg  Mg35  1  0.66005400  0.15695400  0.70999100  1
  Mg  Mg36  1  0.92331300  0.32221300  0.76917600  1
  Mg  Mg37  1  0.41005400  0.21945400  0.77249100  1
  Sc  Sc38  1  0.09001400  0.11414400  0.22750100  1
  Sc  Sc39  1  0.74335300  0.30252300  0.18916600  1
  Sc  Sc40  1  0.84001400  0.17664400  0.29000100  1
  Sc  Sc41  1  0.49335300  0.36502300  0.25166600  1
  Sc  Sc42  1  0.59001400  0.23914400  0.35250100  1
  Sc  Sc43  1  0.24335300  0.42752300  0.31416600  1
  Sc  Sc44  1  0.34001400  0.30164400  0.41500100  1
  Sc  Sc45  1  0.99335300  0.49002300  0.37666600  1
  Sc  Sc46  1  0.09001400  0.36414400  0.47750100  1
  Sc  Sc47  1  0.74335300  0.55252300  0.43916600  1
  Sc  Sc48  1  0.84001400  0.42664400  0.54000100  1
  Sc  Sc49  1  0.49335300  0.61502300  0.50166600  1
  Sc  Sc50  1  0.59001400  0.48914400  0.60250100  1
  Sc  Sc51  1  0.24335300  0.67752300  0.56416600  1
  Sc  Sc52  1  0.34001400  0.55164400  0.66500100  1
  Sc  Sc53  1  0.99335300  0.74002300  0.62666600  1
  Sc  Sc54  1  0.09001400  0.61414400  0.72750100  1
  Sc  Sc55  1  0.74335300  0.80252300  0.68916600  1
  Sc  Sc56  1  0.84001400  0.67664400  0.79000100  1
  Sc  Sc57  1  0.49335300  0.86502300  0.75166600  1
