# generated using pymatgen
data_Ba11Mg98
_symmetry_space_group_name_H-M   'P 1'
_cell_length_a   10.57649000
_cell_length_b   18.93828387
_cell_length_c   48.26522000
_cell_angle_alpha   99.95427710
_cell_angle_beta   90.00000000
_cell_angle_gamma   73.78540565
_symmetry_Int_Tables_number   1
_chemical_formula_structural   Ba11Mg98
_chemical_formula_sum   'Ba22 Mg196'
_cell_volume   9131.33884670
_cell_formula_units_Z   2
loop_
 _symmetry_equiv_pos_site_id
 _symmetry_equiv_pos_as_xyz
  1  'x, y, z'
loop_
 _atom_site_type_symbol
 _atom_site_label
 _atom_site_symmetry_multiplicity
 _atom_site_fract_x
 _atom_site_fract_y
 _atom_site_fract_z
 _atom_site_occupancy
  Ba  Ba0  1  0.45683500  0.10673300  0.20699700  1
  Ba  Ba1  1  0.68148000  0.65744300  0.31931900  1
  Ba  Ba2  1  0.23461200  0.55117800  0.26255200  1
  Ba  Ba3  1  0.12592400  0.76855400  0.20820800  1
  Ba  Ba4  1  0.01239000  0.99562200  0.31810800  1
  Ba  Ba5  1  0.90370200  0.21299800  0.26376400  1
  Ba  Ba6  1  0.79016800  0.44006700  0.37366300  1
  Ba  Ba7  1  0.01481300  0.99077600  0.48598600  1
  Ba  Ba8  1  0.56794600  0.88451100  0.42921900  1
  Ba  Ba9  1  0.45925800  0.10188700  0.37487500  1
  Ba  Ba10  1  0.34572400  0.32895500  0.48477400  1
  Ba  Ba11  1  0.23703500  0.54633200  0.43043000  1
  Ba  Ba12  1  0.12350100  0.77340000  0.54033000  1
  Ba  Ba13  1  0.34814700  0.32411000  0.65265300  1
  Ba  Ba14  1  0.90127900  0.21784400  0.59588500  1
  Ba  Ba15  1  0.79259100  0.43522100  0.54154100  1
  Ba  Ba16  1  0.67905700  0.66228900  0.65144100  1
  Ba  Ba17  1  0.57036900  0.87966500  0.59709700  1
  Ba  Ba18  1  0.45683500  0.10673300  0.70699700  1
  Ba  Ba19  1  0.23461200  0.55117800  0.76255200  1
  Ba  Ba20  1  0.12592400  0.76855400  0.70820800  1
  Ba  Ba21  1  0.90370200  0.21299800  0.76376400  1
  Mg  Mg22  1  0.81858300  0.09070900  0.20080100  1
  Mg  Mg23  1  0.34186000  0.33668200  0.23379400  1
  Mg  Mg24  1  0.12598300  0.26273000  0.21014000  1
  Mg  Mg25  1  0.53689500  0.94661200  0.24702700  1
  Mg  Mg26  1  0.11111100  0.09070900  0.20080100  1
  Mg  Mg27  1  0.54195400  0.22902300  0.26995900  1
  Mg  Mg28  1  0.50662500  0.50144600  0.31617600  1
  Mg  Mg29  1  0.60141900  0.81756400  0.27928900  1
  Mg  Mg30  1  0.49885100  0.43764400  0.20760200  1
  Mg  Mg31  1  0.06915700  0.38208800  0.26315800  1
  Mg  Mg32  1  0.24942600  0.22902300  0.26995900  1
  Mg  Mg33  1  0.01233200  0.50144600  0.31617600  1
  Mg  Mg34  1  0.79645400  0.42749400  0.29252200  1
  Mg  Mg35  1  0.63169000  0.26273000  0.21014000  1
  Mg  Mg36  1  0.45804600  0.10431000  0.29093600  1
  Mg  Mg37  1  0.08390800  0.43764400  0.20760200  1
  Mg  Mg38  1  0.56915700  0.38208800  0.26315800  1
  Mg  Mg39  1  0.59636100  0.53515300  0.25635700  1
  Mg  Mg40  1  0.11963800  0.78112600  0.28934900  1
  Mg  Mg41  1  0.90376100  0.70717400  0.26569500  1
  Mg  Mg42  1  0.31467300  0.39105700  0.30258200  1
  Mg  Mg43  1  0.88888900  0.53515300  0.25635700  1
  Mg  Mg44  1  0.98639800  0.34013400  0.15884800  1
  Mg  Mg45  1  0.95106900  0.61255700  0.20506500  1
  Mg  Mg46  1  0.04586400  0.92867500  0.16817800  1
  Mg  Mg47  1  0.27662900  0.88208800  0.26315800  1
  Mg  Mg48  1  0.84693500  0.82653200  0.31871300  1
  Mg  Mg49  1  0.69387000  0.34013400  0.15884800  1
  Mg  Mg50  1  0.45677600  0.61255700  0.20506500  1
  Mg  Mg51  1  0.24089900  0.53860600  0.18141100  1
  Mg  Mg52  1  0.40946700  0.70717400  0.26569500  1
  Mg  Mg53  1  0.90249100  0.21542100  0.17982500  1
  Mg  Mg54  1  0.86168500  0.88208800  0.26315800  1
  Mg  Mg55  1  0.34693500  0.82653200  0.31871300  1
  Mg  Mg56  1  0.37413900  0.97959700  0.31191300  1
  Mg  Mg57  1  0.56408300  0.89223700  0.17823800  1
  Mg  Mg58  1  0.68153900  0.15161900  0.32125100  1
  Mg  Mg59  1  0.75911700  0.50216800  0.19147100  1
  Mg  Mg60  1  0.66666700  0.97959700  0.31191300  1
  Mg  Mg61  1  0.76417600  0.78457900  0.21440300  1
  Mg  Mg62  1  0.72884700  0.05700200  0.26062100  1
  Mg  Mg63  1  0.82364200  0.37311900  0.22373300  1
  Mg  Mg64  1  0.05440700  0.32653200  0.31871300  1
  Mg  Mg65  1  0.29138000  0.93764400  0.20760200  1
  Mg  Mg66  1  0.47164800  0.78457900  0.21440300  1
  Mg  Mg67  1  0.23455400  0.05700200  0.26062100  1
  Mg  Mg68  1  0.01867600  0.98305000  0.23696600  1
  Mg  Mg69  1  0.18724500  0.15161900  0.32125100  1
  Mg  Mg70  1  0.68026800  0.65986600  0.23538000  1
  Mg  Mg71  1  0.63946300  0.32653200  0.31871300  1
  Mg  Mg72  1  0.79138000  0.93764400  0.20760200  1
  Mg  Mg73  1  0.15191600  0.42404200  0.36746800  1
  Mg  Mg74  1  0.67519400  0.67001500  0.40046100  1
  Mg  Mg75  1  0.45931600  0.59606300  0.37680600  1
  Mg  Mg76  1  0.87022800  0.27994600  0.41369300  1
  Mg  Mg77  1  0.44444400  0.42404200  0.36746800  1
  Mg  Mg78  1  0.87528700  0.56235600  0.43662500  1
  Mg  Mg79  1  0.83995800  0.83477900  0.48284300  1
  Mg  Mg80  1  0.93475300  0.15089700  0.44595600  1
  Mg  Mg81  1  0.83218500  0.77097700  0.37426900  1
  Mg  Mg82  1  0.40249100  0.71542100  0.42982500  1
  Mg  Mg83  1  0.58275900  0.56235600  0.43662500  1
  Mg  Mg84  1  0.34566500  0.83477900  0.48284300  1
  Mg  Mg85  1  0.12978700  0.76082800  0.45918900  1
  Mg  Mg86  1  0.96502300  0.59606300  0.37680600  1
  Mg  Mg87  1  0.79138000  0.43764400  0.45760200  1
  Mg  Mg88  1  0.41724100  0.77097700  0.37426900  1
  Mg  Mg89  1  0.90249100  0.71542100  0.42982500  1
  Mg  Mg90  1  0.92969400  0.86848600  0.42302400  1
  Mg  Mg91  1  0.45297200  0.11445900  0.45601600  1
  Mg  Mg92  1  0.23709400  0.04050800  0.43236200  1
  Mg  Mg93  1  0.64800600  0.72439000  0.46924900  1
  Mg  Mg94  1  0.22222200  0.86848600  0.42302400  1
  Mg  Mg95  1  0.31973200  0.67346800  0.32551400  1
  Mg  Mg96  1  0.28440300  0.94589100  0.37173200  1
  Mg  Mg97  1  0.37919700  0.26200800  0.33484500  1
  Mg  Mg98  1  0.60996200  0.21542100  0.42982500  1
  Mg  Mg99  1  0.18026800  0.15986600  0.48538000  1
  Mg  Mg100  1  0.02720300  0.67346800  0.32551400  1
  Mg  Mg101  1  0.79010900  0.94589100  0.37173200  1
  Mg  Mg102  1  0.57423200  0.87193900  0.34807700  1
  Mg  Mg103  1  0.74280100  0.04050800  0.43236200  1
  Mg  Mg104  1  0.23582400  0.54875500  0.34649100  1
  Mg  Mg105  1  0.19501900  0.21542100  0.42982500  1
  Mg  Mg106  1  0.68026800  0.15986600  0.48538000  1
  Mg  Mg107  1  0.70747200  0.31293100  0.47857900  1
  Mg  Mg108  1  0.89741600  0.22557100  0.34490500  1
  Mg  Mg109  1  0.01487200  0.48495200  0.48791700  1
  Mg  Mg110  1  0.09245100  0.83550100  0.35813800  1
  Mg  Mg111  1  0.00000000  0.31293100  0.47857900  1
  Mg  Mg112  1  0.09750900  0.11791200  0.38107000  1
  Mg  Mg113  1  0.06218100  0.39033500  0.42728700  1
  Mg  Mg114  1  0.15697500  0.70645300  0.39040000  1
  Mg  Mg115  1  0.38774000  0.65986600  0.48538000  1
  Mg  Mg116  1  0.62471300  0.27097700  0.37426900  1
  Mg  Mg117  1  0.80498100  0.11791200  0.38107000  1
  Mg  Mg118  1  0.56788700  0.39033500  0.42728700  1
  Mg  Mg119  1  0.35201000  0.31638300  0.40363300  1
  Mg  Mg120  1  0.52057800  0.48495200  0.48791700  1
  Mg  Mg121  1  0.01360200  0.99319900  0.40204700  1
  Mg  Mg122  1  0.97279700  0.65986600  0.48538000  1
  Mg  Mg123  1  0.12471300  0.27097700  0.37426900  1
  Mg  Mg124  1  0.48525000  0.75737500  0.53413500  1
  Mg  Mg125  1  0.00852700  0.00334800  0.56712700  1
  Mg  Mg126  1  0.79265000  0.92939700  0.54347300  1
  Mg  Mg127  1  0.20356200  0.61327900  0.58036000  1
  Mg  Mg128  1  0.77777800  0.75737500  0.53413500  1
  Mg  Mg129  1  0.20862000  0.89569000  0.60329200  1
  Mg  Mg130  1  0.17329200  0.16811300  0.64950900  1
  Mg  Mg131  1  0.26808600  0.48423000  0.61262200  1
  Mg  Mg132  1  0.16551800  0.10431000  0.54093600  1
  Mg  Mg133  1  0.73582400  0.04875500  0.59649100  1
  Mg  Mg134  1  0.91609200  0.89569000  0.60329200  1
  Mg  Mg135  1  0.67899800  0.16811300  0.64950900  1
  Mg  Mg136  1  0.46312100  0.09416100  0.62585500  1
  Mg  Mg137  1  0.29835600  0.92939700  0.54347300  1
  Mg  Mg138  1  0.12471300  0.77097700  0.62426900  1
  Mg  Mg139  1  0.75057400  0.10431000  0.54093600  1
  Mg  Mg140  1  0.23582400  0.04875500  0.59649100  1
  Mg  Mg141  1  0.26302700  0.20182000  0.58969000  1
  Mg  Mg142  1  0.78630500  0.44779300  0.62268300  1
  Mg  Mg143  1  0.57042800  0.37384100  0.59902900  1
  Mg  Mg144  1  0.98134000  0.05772300  0.63591600  1
  Mg  Mg145  1  0.55555600  0.20182000  0.58969000  1
  Mg  Mg146  1  0.65306500  0.00680100  0.49218100  1
  Mg  Mg147  1  0.61773600  0.27922400  0.53839800  1
  Mg  Mg148  1  0.71253100  0.59534200  0.50151100  1
  Mg  Mg149  1  0.94329600  0.54875500  0.59649100  1
  Mg  Mg150  1  0.51360200  0.49319900  0.65204700  1
  Mg  Mg151  1  0.36053700  0.00680100  0.49218100  1
  Mg  Mg152  1  0.12344300  0.27922400  0.53839800  1
  Mg  Mg153  1  0.90756500  0.20527200  0.51474400  1
  Mg  Mg154  1  0.07613400  0.37384100  0.59902900  1
  Mg  Mg155  1  0.56915700  0.88208800  0.51315800  1
  Mg  Mg156  1  0.52835200  0.54875500  0.59649100  1
  Mg  Mg157  1  0.01360200  0.49319900  0.65204700  1
  Mg  Mg158  1  0.04080500  0.64626400  0.64524600  1
  Mg  Mg159  1  0.23074900  0.55890400  0.51157200  1
  Mg  Mg160  1  0.34820500  0.81828500  0.65458400  1
  Mg  Mg161  1  0.42578400  0.16883500  0.52480500  1
  Mg  Mg162  1  0.33333300  0.64626400  0.64524600  1
  Mg  Mg163  1  0.43084300  0.45124500  0.54773700  1
  Mg  Mg164  1  0.39551400  0.72366800  0.59395400  1
  Mg  Mg165  1  0.49030800  0.03978600  0.55706700  1
  Mg  Mg166  1  0.72107400  0.99319900  0.65204700  1
  Mg  Mg167  1  0.95804600  0.60431000  0.54093600  1
  Mg  Mg168  1  0.13831500  0.45124500  0.54773700  1
  Mg  Mg169  1  0.90122000  0.72366800  0.59395400  1
  Mg  Mg170  1  0.68534300  0.64971700  0.57030000  1
  Mg  Mg171  1  0.85391200  0.81828500  0.65458400  1
  Mg  Mg172  1  0.34693500  0.32653200  0.56871300  1
  Mg  Mg173  1  0.30613000  0.99319900  0.65204700  1
  Mg  Mg174  1  0.45804600  0.60431000  0.54093600  1
  Mg  Mg175  1  0.81858300  0.09070900  0.70080100  1
  Mg  Mg176  1  0.34186000  0.33668200  0.73379400  1
  Mg  Mg177  1  0.12598300  0.26273000  0.71014000  1
  Mg  Mg178  1  0.53689500  0.94661200  0.74702700  1
  Mg  Mg179  1  0.11111100  0.09070900  0.70080100  1
  Mg  Mg180  1  0.54195400  0.22902300  0.76995900  1
  Mg  Mg181  1  0.60141900  0.81756400  0.77928900  1
  Mg  Mg182  1  0.49885100  0.43764400  0.70760200  1
  Mg  Mg183  1  0.06915700  0.38208800  0.76315800  1
  Mg  Mg184  1  0.24942600  0.22902300  0.76995900  1
  Mg  Mg185  1  0.79645400  0.42749400  0.79252200  1
  Mg  Mg186  1  0.63169000  0.26273000  0.71014000  1
  Mg  Mg187  1  0.45804600  0.10431000  0.79093600  1
  Mg  Mg188  1  0.08390800  0.43764400  0.70760200  1
  Mg  Mg189  1  0.56915700  0.38208800  0.76315800  1
  Mg  Mg190  1  0.59636100  0.53515300  0.75635700  1
  Mg  Mg191  1  0.11963800  0.78112600  0.78934900  1
  Mg  Mg192  1  0.90376100  0.70717400  0.76569500  1
  Mg  Mg193  1  0.31467300  0.39105700  0.80258200  1
  Mg  Mg194  1  0.88888900  0.53515300  0.75635700  1
  Mg  Mg195  1  0.98639800  0.34013400  0.65884800  1
  Mg  Mg196  1  0.95106900  0.61255700  0.70506500  1
  Mg  Mg197  1  0.04586400  0.92867500  0.66817800  1
  Mg  Mg198  1  0.27662900  0.88208800  0.76315800  1
  Mg  Mg199  1  0.69387000  0.34013400  0.65884800  1
  Mg  Mg200  1  0.45677600  0.61255700  0.70506500  1
  Mg  Mg201  1  0.24089900  0.53860600  0.68141100  1
  Mg  Mg202  1  0.40946700  0.70717400  0.76569500  1
  Mg  Mg203  1  0.90249100  0.21542100  0.67982500  1
  Mg  Mg204  1  0.86168500  0.88208800  0.76315800  1
  Mg  Mg205  1  0.37413900  0.97959700  0.81191300  1
  Mg  Mg206  1  0.56408300  0.89223700  0.67823800  1
  Mg  Mg207  1  0.75911700  0.50216800  0.69147100  1
  Mg  Mg208  1  0.66666700  0.97959700  0.81191300  1
  Mg  Mg209  1  0.76417600  0.78457900  0.71440300  1
  Mg  Mg210  1  0.72884700  0.05700200  0.76062100  1
  Mg  Mg211  1  0.82364200  0.37311900  0.72373300  1
  Mg  Mg212  1  0.29138000  0.93764400  0.70760200  1
  Mg  Mg213  1  0.47164800  0.78457900  0.71440300  1
  Mg  Mg214  1  0.23455400  0.05700200  0.76062100  1
  Mg  Mg215  1  0.01867600  0.98305000  0.73696600  1
  Mg  Mg216  1  0.68026800  0.65986600  0.73538000  1
  Mg  Mg217  1  0.79138000  0.93764400  0.70760200  1
