# generated using pymatgen
data_Mg24Zn43
_symmetry_space_group_name_H-M   'P 1'
_cell_length_a   5.07402229
_cell_length_b   14.70723601
_cell_length_c   50.49845100
_cell_angle_alpha   88.21601723
_cell_angle_beta   89.67566990
_cell_angle_gamma   90.29193359
_symmetry_Int_Tables_number   1
_chemical_formula_structural   Mg24Zn43
_chemical_formula_sum   'Mg24 Zn43'
_cell_volume   3766.49971225
_cell_formula_units_Z   1
loop_
 _symmetry_equiv_pos_site_id
 _symmetry_equiv_pos_as_xyz
  1  'x, y, z'
loop_
 _atom_site_type_symbol
 _atom_site_label
 _atom_site_symmetry_multiplicity
 _atom_site_fract_x
 _atom_site_fract_y
 _atom_site_fract_z
 _atom_site_occupancy
  Mg  Mg0  1  0.18999900  0.88308000  0.46502100  1
  Mg  Mg1  1  0.18721100  0.14953200  0.38496400  1
  Mg  Mg2  1  0.19583700  0.64577600  0.24982800  1
  Mg  Mg3  1  0.69338900  0.86019900  0.43130400  1
  Mg  Mg4  1  0.69204000  0.23582300  0.40994300  1
  Mg  Mg5  1  0.69390300  0.96053300  0.25933500  1
  Mg  Mg6  1  0.68966300  0.19873800  0.47263900  1
  Mg  Mg7  1  0.68920500  0.83109800  0.37324100  1
  Mg  Mg8  1  0.19047700  0.08030500  0.49143200  1
  Mg  Mg9  1  0.69055400  0.45547400  0.39460200  1
  Mg  Mg10  1  0.68675700  0.29552100  0.30471800  1
  Mg  Mg11  1  0.19211700  0.61099200  0.31311400  1
  Mg  Mg12  1  0.18989600  0.94413900  0.39887000  1
  Mg  Mg13  1  0.19099400  0.51487700  0.48187400  1
  Mg  Mg14  1  0.19160000  0.17642000  0.32267200  1
  Mg  Mg15  1  0.69293100  0.49255900  0.33190700  1
  Mg  Mg16  1  0.19259600  0.80821700  0.33952400  1
  Mg  Mg17  1  0.18869200  0.98076400  0.29521100  1
  Mg  Mg18  1  0.19538300  0.54176500  0.41958100  1
  Mg  Mg19  1  0.19269800  0.74715800  0.40567500  1
  Mg  Mg20  1  0.69583700  0.39577600  0.49982800  1
  Mg  Mg21  1  0.19390300  0.71053300  0.50933500  1
  Mg  Mg22  1  0.18675700  0.04552100  0.55471800  1
  Mg  Mg23  1  0.68869200  0.73076400  0.54521100  1
  Zn  Zn24  1  0.18719600  0.21566000  0.43997100  1
  Zn  Zn25  1  0.69056700  0.03720000  0.39333300  1
  Zn  Zn26  1  0.19481000  0.31119300  0.27387600  1
  Zn  Zn27  1  0.44069000  0.63352100  0.36609000  1
  Zn  Zn28  1  0.93645400  0.31352600  0.35763100  1
  Zn  Zn29  1  0.43834500  0.06002000  0.43743300  1
  Zn  Zn30  1  0.94129700  0.47064900  0.27727300  1
  Zn  Zn31  1  0.19539800  0.47563700  0.36457400  1
  Zn  Zn32  1  0.69210300  0.07648400  0.30853100  1
  Zn  Zn33  1  0.93973000  0.37779000  0.44700800  1
  Zn  Zn34  1  0.93788800  0.15389100  0.26955400  1
  Zn  Zn35  1  0.69042200  0.79715500  0.48757000  1
  Zn  Zn36  1  0.19171300  0.29498500  0.48653700  1
  Zn  Zn37  1  0.69680600  0.53023000  0.45006800  1
  Zn  Zn38  1  0.69202700  0.65409700  0.41121200  1
  Zn  Zn39  1  0.69049100  0.61481300  0.49601500  1
  Zn  Zn40  1  0.95045000  0.69306600  0.45519900  1
  Zn  Zn41  1  0.44286400  0.31350700  0.35753700  1
  Zn  Zn42  1  0.94424900  0.63127700  0.36711300  1
  Zn  Zn43  1  0.19088100  0.39631200  0.31800800  1
  Zn  Zn44  1  0.43214400  0.99823100  0.34934700  1
  Zn  Zn45  1  0.44614000  0.37777100  0.44691400  1
  Zn  Zn46  1  0.44129700  0.47064900  0.27727300  1
  Zn  Zn47  1  0.68574700  0.98539200  0.47799100  1
  Zn  Zn48  1  0.44195100  0.15298800  0.26993100  1
  Zn  Zn49  1  0.43705000  0.69554400  0.45453800  1
  Zn  Zn50  1  0.69684700  0.70590500  0.32655400  1
  Zn  Zn51  1  0.94554400  0.99575300  0.35000700  1
  Zn  Zn52  1  0.68578800  0.16106700  0.35447700  1
  Zn  Zn53  1  0.44064300  0.78830900  0.28461500  1
  Zn  Zn54  1  0.94190500  0.05777600  0.43845600  1
  Zn  Zn55  1  0.19129700  0.34564900  0.40227300  1
  Zn  Zn56  1  0.94470600  0.78740600  0.28499100  1
  Zn  Zn57  1  0.69217200  0.89414200  0.31697600  1
  Zn  Zn58  1  0.68778400  0.63010400  0.28067000  1
  Zn  Zn59  1  0.69481000  0.06119300  0.52387600  1
  Zn  Zn60  1  0.44129700  0.22064900  0.52727300  1
  Zn  Zn61  1  0.43788800  0.90389100  0.51955400  1
  Zn  Zn62  1  0.94129700  0.22064900  0.52727300  1
  Zn  Zn63  1  0.94195100  0.90298800  0.51993100  1
  Zn  Zn64  1  0.94064300  0.53830900  0.53461500  1
  Zn  Zn65  1  0.44470600  0.53740600  0.53499100  1
  Zn  Zn66  1  0.18778400  0.38010400  0.53067000  1
