# generated using pymatgen
data_La10Mg79
_symmetry_space_group_name_H-M   'P 1'
_cell_length_a   10.09623600
_cell_length_b   17.99384600
_cell_length_c   41.55500800
_cell_angle_alpha   90.00000000
_cell_angle_beta   90.00000000
_cell_angle_gamma   90.00000000
_symmetry_Int_Tables_number   1
_chemical_formula_structural   La10Mg79
_chemical_formula_sum   'La20 Mg158'
_cell_volume   7549.30311392
_cell_formula_units_Z   2
loop_
 _symmetry_equiv_pos_site_id
 _symmetry_equiv_pos_as_xyz
  1  'x, y, z'
loop_
 _atom_site_type_symbol
 _atom_site_label
 _atom_site_symmetry_multiplicity
 _atom_site_fract_x
 _atom_site_fract_y
 _atom_site_fract_z
 _atom_site_occupancy
  La  La0  1  0.25000000  0.05436400  0.26973700  1
  La  La1  1  0.75000000  0.38769800  0.26973700  1
  La  La2  1  0.75000000  0.72103100  0.26973700  1
  La  La3  1  0.25000000  0.72103100  0.26973700  1
  La  La4  1  0.25000000  0.55436400  0.39473700  1
  La  La5  1  0.75000000  0.88769800  0.39473700  1
  La  La6  1  0.75000000  0.22103100  0.39473700  1
  La  La7  1  0.25000000  0.22103100  0.39473700  1
  La  La8  1  0.25000000  0.05436400  0.51973700  1
  La  La9  1  0.75000000  0.38769800  0.51973700  1
  La  La10  1  0.75000000  0.72103100  0.51973700  1
  La  La11  1  0.25000000  0.72103100  0.51973700  1
  La  La12  1  0.25000000  0.55436400  0.64473700  1
  La  La13  1  0.75000000  0.88769800  0.64473700  1
  La  La14  1  0.75000000  0.22103100  0.64473700  1
  La  La15  1  0.25000000  0.22103100  0.64473700  1
  La  La16  1  0.25000000  0.05436400  0.76973700  1
  La  La17  1  0.75000000  0.38769800  0.76973700  1
  La  La18  1  0.75000000  0.72103100  0.76973700  1
  La  La19  1  0.25000000  0.72103100  0.76973700  1
  Mg  Mg20  1  0.97910500  0.55880800  0.26973700  1
  Mg  Mg21  1  0.47910500  0.88325400  0.26973700  1
  Mg  Mg22  1  0.40166600  0.38769800  0.26973700  1
  Mg  Mg23  1  0.90166600  0.05436400  0.26973700  1
  Mg  Mg24  1  0.59833400  0.05436400  0.26973700  1
  Mg  Mg25  1  0.09833400  0.38769800  0.26973700  1
  Mg  Mg26  1  0.00000000  0.22103100  0.26973700  1
  Mg  Mg27  1  0.50000000  0.22103100  0.26973700  1
  Mg  Mg28  1  0.25000000  0.88526600  0.31941900  1
  Mg  Mg29  1  0.75000000  0.90251200  0.23299000  1
  Mg  Mg30  1  0.75000000  0.20378400  0.23116600  1
  Mg  Mg31  1  0.25000000  0.23827800  0.30830800  1
  Mg  Mg32  1  0.25000000  0.53955000  0.30648400  1
  Mg  Mg33  1  0.75000000  0.90251200  0.30648400  1
  Mg  Mg34  1  0.75000000  0.55679700  0.31941900  1
  Mg  Mg35  1  0.75000000  0.55679700  0.22005500  1
  Mg  Mg36  1  0.75000000  0.20378400  0.30830800  1
  Mg  Mg37  1  0.25000000  0.23827800  0.23116600  1
  Mg  Mg38  1  0.25000000  0.53955000  0.23299000  1
  Mg  Mg39  1  0.25000000  0.88526600  0.22005500  1
  Mg  Mg40  1  0.02089500  0.88325400  0.26973700  1
  Mg  Mg41  1  0.52089500  0.55880800  0.26973700  1
  Mg  Mg42  1  0.97910500  0.80214300  0.33057000  1
  Mg  Mg43  1  0.97910500  0.30214300  0.33390300  1
  Mg  Mg44  1  0.97910500  0.05880800  0.39473700  1
  Mg  Mg45  1  0.47910500  0.38325400  0.39473700  1
  Mg  Mg46  1  0.40166600  0.88769800  0.39473700  1
  Mg  Mg47  1  0.90166600  0.55436400  0.39473700  1
  Mg  Mg48  1  0.59833400  0.55436400  0.39473700  1
  Mg  Mg49  1  0.09833400  0.88769800  0.39473700  1
  Mg  Mg50  1  0.50000000  0.97103100  0.33223700  1
  Mg  Mg51  1  0.00000000  0.47103100  0.33223700  1
  Mg  Mg52  1  1.00000000  0.72103100  0.39473700  1
  Mg  Mg53  1  0.50000000  0.72103100  0.39473700  1
  Mg  Mg54  1  0.50000000  0.47103100  0.33223700  1
  Mg  Mg55  1  1.00000000  0.97103100  0.33223700  1
  Mg  Mg56  1  0.25000000  0.38526600  0.44441900  1
  Mg  Mg57  1  0.75000000  0.40251200  0.35799000  1
  Mg  Mg58  1  0.75000000  0.70378400  0.35616600  1
  Mg  Mg59  1  0.25000000  0.73827800  0.43330800  1
  Mg  Mg60  1  0.25000000  0.03955000  0.43148400  1
  Mg  Mg61  1  0.75000000  0.40251200  0.43148400  1
  Mg  Mg62  1  0.75000000  0.05679700  0.44441900  1
  Mg  Mg63  1  0.75000000  0.05679700  0.34505500  1
  Mg  Mg64  1  0.75000000  0.70378400  0.43330800  1
  Mg  Mg65  1  0.25000000  0.73827800  0.35616600  1
  Mg  Mg66  1  0.25000000  0.03955000  0.35799000  1
  Mg  Mg67  1  0.25000000  0.38526600  0.34505500  1
  Mg  Mg68  1  0.52089500  0.30214300  0.33390300  1
  Mg  Mg69  1  0.02089500  0.13992000  0.33390300  1
  Mg  Mg70  1  0.02089500  0.38325400  0.39473700  1
  Mg  Mg71  1  0.52089500  0.05880800  0.39473700  1
  Mg  Mg72  1  0.52089500  0.80214300  0.33057000  1
  Mg  Mg73  1  0.47910500  0.63992000  0.33057000  1
  Mg  Mg74  1  0.47910500  0.13992000  0.33390300  1
  Mg  Mg75  1  0.02089500  0.63992000  0.33057000  1
  Mg  Mg76  1  0.97910500  0.30214300  0.45557000  1
  Mg  Mg77  1  0.97910500  0.80214300  0.45890300  1
  Mg  Mg78  1  0.97910500  0.55880800  0.51973700  1
  Mg  Mg79  1  0.47910500  0.88325400  0.51973700  1
  Mg  Mg80  1  0.40166600  0.38769800  0.51973700  1
  Mg  Mg81  1  0.90166600  0.05436400  0.51973700  1
  Mg  Mg82  1  0.59833400  0.05436400  0.51973700  1
  Mg  Mg83  1  0.09833400  0.38769800  0.51973700  1
  Mg  Mg84  1  0.50000000  0.47103100  0.45723700  1
  Mg  Mg85  1  0.00000000  0.97103100  0.45723700  1
  Mg  Mg86  1  1.00000000  0.22103100  0.51973700  1
  Mg  Mg87  1  0.50000000  0.22103100  0.51973700  1
  Mg  Mg88  1  0.50000000  0.97103100  0.45723700  1
  Mg  Mg89  1  1.00000000  0.47103100  0.45723700  1
  Mg  Mg90  1  0.25000000  0.88526600  0.56941900  1
  Mg  Mg91  1  0.75000000  0.90251200  0.48299000  1
  Mg  Mg92  1  0.75000000  0.20378400  0.48116600  1
  Mg  Mg93  1  0.25000000  0.23827800  0.55830800  1
  Mg  Mg94  1  0.25000000  0.53955000  0.55648400  1
  Mg  Mg95  1  0.75000000  0.90251200  0.55648400  1
  Mg  Mg96  1  0.75000000  0.55679700  0.56941900  1
  Mg  Mg97  1  0.75000000  0.55679700  0.47005500  1
  Mg  Mg98  1  0.75000000  0.20378400  0.55830800  1
  Mg  Mg99  1  0.25000000  0.23827800  0.48116600  1
  Mg  Mg100  1  0.25000000  0.53955000  0.48299000  1
  Mg  Mg101  1  0.25000000  0.88526600  0.47005500  1
  Mg  Mg102  1  0.52089500  0.80214300  0.45890300  1
  Mg  Mg103  1  0.02089500  0.63992000  0.45890300  1
  Mg  Mg104  1  0.02089500  0.88325400  0.51973700  1
  Mg  Mg105  1  0.52089500  0.55880800  0.51973700  1
  Mg  Mg106  1  0.52089500  0.30214300  0.45557000  1
  Mg  Mg107  1  0.47910500  0.13992000  0.45557000  1
  Mg  Mg108  1  0.47910500  0.63992000  0.45890300  1
  Mg  Mg109  1  0.02089500  0.13992000  0.45557000  1
  Mg  Mg110  1  0.97910500  0.80214300  0.58057000  1
  Mg  Mg111  1  0.97910500  0.30214300  0.58390300  1
  Mg  Mg112  1  0.97910500  0.05880800  0.64473700  1
  Mg  Mg113  1  0.47910500  0.38325400  0.64473700  1
  Mg  Mg114  1  0.40166600  0.88769800  0.64473700  1
  Mg  Mg115  1  0.90166600  0.55436400  0.64473700  1
  Mg  Mg116  1  0.59833400  0.55436400  0.64473700  1
  Mg  Mg117  1  0.09833400  0.88769800  0.64473700  1
  Mg  Mg118  1  0.50000000  0.97103100  0.58223700  1
  Mg  Mg119  1  1.00000000  0.47103100  0.58223700  1
  Mg  Mg120  1  1.00000000  0.72103100  0.64473700  1
  Mg  Mg121  1  0.50000000  0.72103100  0.64473700  1
  Mg  Mg122  1  0.50000000  0.47103100  0.58223700  1
  Mg  Mg123  1  0.00000000  0.97103100  0.58223700  1
  Mg  Mg124  1  0.25000000  0.38526600  0.69441900  1
  Mg  Mg125  1  0.75000000  0.40251200  0.60799000  1
  Mg  Mg126  1  0.75000000  0.70378400  0.60616600  1
  Mg  Mg127  1  0.25000000  0.73827800  0.68330800  1
  Mg  Mg128  1  0.25000000  0.03955000  0.68148400  1
  Mg  Mg129  1  0.75000000  0.40251200  0.68148400  1
  Mg  Mg130  1  0.75000000  0.05679700  0.69441900  1
  Mg  Mg131  1  0.75000000  0.05679700  0.59505500  1
  Mg  Mg132  1  0.75000000  0.70378400  0.68330800  1
  Mg  Mg133  1  0.25000000  0.73827800  0.60616600  1
  Mg  Mg134  1  0.25000000  0.03955000  0.60799000  1
  Mg  Mg135  1  0.25000000  0.38526600  0.59505500  1
  Mg  Mg136  1  0.52089500  0.30214300  0.58390300  1
  Mg  Mg137  1  0.02089500  0.13992000  0.58390300  1
  Mg  Mg138  1  0.02089500  0.38325400  0.64473700  1
  Mg  Mg139  1  0.52089500  0.05880800  0.64473700  1
  Mg  Mg140  1  0.52089500  0.80214300  0.58057000  1
  Mg  Mg141  1  0.47910500  0.63992000  0.58057000  1
  Mg  Mg142  1  0.47910500  0.13992000  0.58390300  1
  Mg  Mg143  1  0.02089500  0.63992000  0.58057000  1
  Mg  Mg144  1  0.97910500  0.30214300  0.70557000  1
  Mg  Mg145  1  0.97910500  0.80214300  0.70890300  1
  Mg  Mg146  1  0.97910500  0.55880800  0.76973700  1
  Mg  Mg147  1  0.47910500  0.88325400  0.76973700  1
  Mg  Mg148  1  0.40166600  0.38769800  0.76973700  1
  Mg  Mg149  1  0.90166600  0.05436400  0.76973700  1
  Mg  Mg150  1  0.59833400  0.05436400  0.76973700  1
  Mg  Mg151  1  0.09833400  0.38769800  0.76973700  1
  Mg  Mg152  1  0.50000000  0.47103100  0.70723700  1
  Mg  Mg153  1  0.00000000  0.97103100  0.70723700  1
  Mg  Mg154  1  0.00000000  0.22103100  0.76973700  1
  Mg  Mg155  1  0.50000000  0.22103100  0.76973700  1
  Mg  Mg156  1  0.50000000  0.97103100  0.70723700  1
  Mg  Mg157  1  1.00000000  0.47103100  0.70723700  1
  Mg  Mg158  1  0.25000000  0.88526600  0.81941900  1
  Mg  Mg159  1  0.75000000  0.90251200  0.73299000  1
  Mg  Mg160  1  0.75000000  0.20378400  0.73116600  1
  Mg  Mg161  1  0.25000000  0.23827800  0.80830800  1
  Mg  Mg162  1  0.25000000  0.53955000  0.80648400  1
  Mg  Mg163  1  0.75000000  0.90251200  0.80648400  1
  Mg  Mg164  1  0.75000000  0.55679700  0.81941900  1
  Mg  Mg165  1  0.75000000  0.55679700  0.72005500  1
  Mg  Mg166  1  0.75000000  0.20378400  0.80830800  1
  Mg  Mg167  1  0.25000000  0.23827800  0.73116600  1
  Mg  Mg168  1  0.25000000  0.53955000  0.73299000  1
  Mg  Mg169  1  0.25000000  0.88526600  0.72005500  1
  Mg  Mg170  1  0.52089500  0.80214300  0.70890300  1
  Mg  Mg171  1  0.02089500  0.63992000  0.70890300  1
  Mg  Mg172  1  0.02089500  0.88325400  0.76973700  1
  Mg  Mg173  1  0.52089500  0.55880800  0.76973700  1
  Mg  Mg174  1  0.52089500  0.30214300  0.70557000  1
  Mg  Mg175  1  0.47910500  0.13992000  0.70557000  1
  Mg  Mg176  1  0.47910500  0.63992000  0.70890300  1
  Mg  Mg177  1  0.02089500  0.13992000  0.70557000  1
