# generated using pymatgen
data_Lu19Mg7
_symmetry_space_group_name_H-M   'P 1'
_cell_length_a   6.87894338
_cell_length_b   8.79149489
_cell_length_c   44.47489300
_cell_angle_alpha   91.38583809
_cell_angle_beta   94.43540539
_cell_angle_gamma   66.96911863
_symmetry_Int_Tables_number   1
_chemical_formula_structural   Lu19Mg7
_chemical_formula_sum   'Lu38 Mg14'
_cell_volume   2467.82250929
_cell_formula_units_Z   2
loop_
 _symmetry_equiv_pos_site_id
 _symmetry_equiv_pos_as_xyz
  1  'x, y, z'
loop_
 _atom_site_type_symbol
 _atom_site_label
 _atom_site_symmetry_multiplicity
 _atom_site_fract_x
 _atom_site_fract_y
 _atom_site_fract_z
 _atom_site_occupancy
  Lu  Lu0  1  0.01588900  0.04411900  0.25776000  1
  Lu  Lu1  1  0.71156800  0.63723900  0.24224000  1
  Lu  Lu2  1  0.83407000  0.49866400  0.34866900  1
  Lu  Lu3  1  0.42249200  0.77305000  0.30293800  1
  Lu  Lu4  1  0.92553200  0.77305000  0.30293800  1
  Lu  Lu5  1  0.62010700  0.36285300  0.28797100  1
  Lu  Lu6  1  0.12314700  0.36285300  0.28797100  1
  Lu  Lu7  1  0.52975000  0.09178400  0.33314900  1
  Lu  Lu8  1  0.65225200  0.95321000  0.43957800  1
  Lu  Lu9  1  0.24067400  0.22759500  0.39384700  1
  Lu  Lu10  1  0.74371400  0.22759500  0.39384700  1
  Lu  Lu11  1  0.43828800  0.81739900  0.37888000  1
  Lu  Lu12  1  0.94132900  0.81739900  0.37888000  1
  Lu  Lu13  1  0.34793200  0.54633000  0.42405800  1
  Lu  Lu14  1  0.47043400  0.40775500  0.53048700  1
  Lu  Lu15  1  0.05885600  0.68214100  0.48475600  1
  Lu  Lu16  1  0.56189600  0.68214100  0.48475600  1
  Lu  Lu17  1  0.25647000  0.27194400  0.46978900  1
  Lu  Lu18  1  0.75951000  0.27194400  0.46978900  1
  Lu  Lu19  1  0.16611400  0.00087500  0.51496700  1
  Lu  Lu20  1  0.28861600  0.86230100  0.62139600  1
  Lu  Lu21  1  0.87703700  0.13668600  0.57566500  1
  Lu  Lu22  1  0.38007800  0.13668600  0.57566500  1
  Lu  Lu23  1  0.07465200  0.72649000  0.56069800  1
  Lu  Lu24  1  0.57769200  0.72649000  0.56069800  1
  Lu  Lu25  1  0.98429600  0.45542100  0.60587600  1
  Lu  Lu26  1  0.10679800  0.31684600  0.71230500  1
  Lu  Lu27  1  0.69521900  0.59123200  0.66657500  1
  Lu  Lu28  1  0.19825900  0.59123200  0.66657500  1
  Lu  Lu29  1  0.89283400  0.18103500  0.65160700  1
  Lu  Lu30  1  0.39587400  0.18103500  0.65160700  1
  Lu  Lu31  1  0.80247800  0.90996600  0.69678500  1
  Lu  Lu32  1  0.92497900  0.77139100  0.80321500  1
  Lu  Lu33  1  0.51340100  0.04577700  0.75748400  1
  Lu  Lu34  1  0.01644100  0.04577700  0.75748400  1
  Lu  Lu35  1  0.71101600  0.63558100  0.74251600  1
  Lu  Lu36  1  0.21405600  0.63558100  0.74251600  1
  Lu  Lu37  1  0.62065900  0.36451200  0.78769500  1
  Mg  Mg38  1  0.51524400  0.04522400  0.25757600  1
  Mg  Mg39  1  0.21221300  0.63613300  0.24242400  1
  Mg  Mg40  1  0.33342500  0.49977000  0.34848500  1
  Mg  Mg41  1  0.03039500  0.09067900  0.33333300  1
  Mg  Mg42  1  0.15160700  0.95431500  0.43939400  1
  Mg  Mg43  1  0.84857700  0.54522400  0.42424200  1
  Mg  Mg44  1  0.96978900  0.40886100  0.53030300  1
  Mg  Mg45  1  0.66675900  0.99977000  0.51515200  1
  Mg  Mg46  1  0.78797100  0.86340600  0.62121200  1
  Mg  Mg47  1  0.48494100  0.45431500  0.60606100  1
  Mg  Mg48  1  0.60615300  0.31795200  0.71212100  1
  Mg  Mg49  1  0.30312200  0.90886100  0.69697000  1
  Mg  Mg50  1  0.42433500  0.77249700  0.80303000  1
  Mg  Mg51  1  0.12130400  0.36340600  0.78787900  1
