# generated using pymatgen
data_Mg4Al7
_symmetry_space_group_name_H-M   'P 1'
_cell_length_a   5.50999200
_cell_length_b   8.63345300
_cell_length_c   47.71793200
_cell_angle_alpha   90.00000000
_cell_angle_beta   90.00000000
_cell_angle_gamma   90.00000000
_symmetry_Int_Tables_number   1
_chemical_formula_structural   Mg4Al7
_chemical_formula_sum   'Mg24 Al42'
_cell_volume   2269.95428695
_cell_formula_units_Z   6
loop_
 _symmetry_equiv_pos_site_id
 _symmetry_equiv_pos_as_xyz
  1  'x, y, z'
loop_
 _atom_site_type_symbol
 _atom_site_label
 _atom_site_symmetry_multiplicity
 _atom_site_fract_x
 _atom_site_fract_y
 _atom_site_fract_z
 _atom_site_occupancy
  Mg  Mg0  1  0.12800600  0.56708600  0.24166700  1
  Mg  Mg1  1  0.62800600  0.06708600  0.20833300  1
  Mg  Mg2  1  0.62800600  0.43291400  0.20833300  1
  Mg  Mg3  1  0.12800600  0.93291400  0.24166700  1
  Mg  Mg4  1  0.62800600  0.56708600  0.34166700  1
  Mg  Mg5  1  0.12800600  0.06708600  0.30833300  1
  Mg  Mg6  1  0.12800600  0.43291400  0.30833300  1
  Mg  Mg7  1  0.62800600  0.93291400  0.34166700  1
  Mg  Mg8  1  0.12800600  0.56708600  0.44166700  1
  Mg  Mg9  1  0.62800600  0.06708600  0.40833300  1
  Mg  Mg10  1  0.62800600  0.43291400  0.40833300  1
  Mg  Mg11  1  0.12800600  0.93291400  0.44166700  1
  Mg  Mg12  1  0.62800600  0.56708600  0.54166700  1
  Mg  Mg13  1  0.12800600  0.06708600  0.50833300  1
  Mg  Mg14  1  0.12800600  0.43291400  0.50833300  1
  Mg  Mg15  1  0.62800600  0.93291400  0.54166700  1
  Mg  Mg16  1  0.12800600  0.56708600  0.64166700  1
  Mg  Mg17  1  0.62800600  0.06708600  0.60833300  1
  Mg  Mg18  1  0.62800600  0.43291400  0.60833300  1
  Mg  Mg19  1  0.12800600  0.93291400  0.64166700  1
  Mg  Mg20  1  0.62800600  0.56708600  0.74166700  1
  Mg  Mg21  1  0.12800600  0.06708600  0.70833300  1
  Mg  Mg22  1  0.12800600  0.43291400  0.70833300  1
  Mg  Mg23  1  0.62800600  0.93291400  0.74166700  1
  Al  Al24  1  0.62800600  0.50000000  0.27500000  1
  Al  Al25  1  0.62800600  0.00000000  0.27500000  1
  Al  Al26  1  0.12800600  0.25000000  0.20913500  1
  Al  Al27  1  0.88401700  0.75000000  0.29206700  1
  Al  Al28  1  0.37199400  0.75000000  0.29206700  1
  Al  Al29  1  0.88401700  0.25000000  0.25793300  1
  Al  Al30  1  0.37199400  0.25000000  0.25793300  1
  Al  Al31  1  0.62800600  0.75000000  0.24086500  1
  Al  Al32  1  0.12800600  0.50000000  0.37500000  1
  Al  Al33  1  0.12800600  0.00000000  0.37500000  1
  Al  Al34  1  0.62800600  0.25000000  0.30913500  1
  Al  Al35  1  0.38401700  0.75000000  0.39206700  1
  Al  Al36  1  0.87199400  0.75000000  0.39206700  1
  Al  Al37  1  0.38401700  0.25000000  0.35793300  1
  Al  Al38  1  0.87199400  0.25000000  0.35793300  1
  Al  Al39  1  0.12800600  0.75000000  0.34086500  1
  Al  Al40  1  0.62800600  0.50000000  0.47500000  1
  Al  Al41  1  0.62800600  0.00000000  0.47500000  1
  Al  Al42  1  0.12800600  0.25000000  0.40913500  1
  Al  Al43  1  0.88401700  0.75000000  0.49206700  1
  Al  Al44  1  0.37199400  0.75000000  0.49206700  1
  Al  Al45  1  0.88401700  0.25000000  0.45793300  1
  Al  Al46  1  0.37199400  0.25000000  0.45793300  1
  Al  Al47  1  0.62800600  0.75000000  0.44086500  1
  Al  Al48  1  0.12800600  0.50000000  0.57500000  1
  Al  Al49  1  0.12800600  0.00000000  0.57500000  1
  Al  Al50  1  0.62800600  0.25000000  0.50913500  1
  Al  Al51  1  0.38401700  0.75000000  0.59206700  1
  Al  Al52  1  0.87199400  0.75000000  0.59206700  1
  Al  Al53  1  0.38401700  0.25000000  0.55793300  1
  Al  Al54  1  0.87199400  0.25000000  0.55793300  1
  Al  Al55  1  0.12800600  0.75000000  0.54086500  1
  Al  Al56  1  0.62800600  0.50000000  0.67500000  1
  Al  Al57  1  0.62800600  0.00000000  0.67500000  1
  Al  Al58  1  0.12800600  0.25000000  0.60913500  1
  Al  Al59  1  0.88401700  0.75000000  0.69206700  1
  Al  Al60  1  0.37199400  0.75000000  0.69206700  1
  Al  Al61  1  0.88401700  0.25000000  0.65793300  1
  Al  Al62  1  0.37199400  0.25000000  0.65793300  1
  Al  Al63  1  0.62800600  0.75000000  0.64086500  1
  Al  Al64  1  0.62800600  0.25000000  0.70913500  1
  Al  Al65  1  0.12800600  0.75000000  0.74086500  1
