# generated using pymatgen
data_Mg16P11
_symmetry_space_group_name_H-M   'P 1'
_cell_length_a   12.07082000
_cell_length_b   12.07082000
_cell_length_c   60.35409900
_cell_angle_alpha   90.00000000
_cell_angle_beta   90.00000000
_cell_angle_gamma   90.00000000
_symmetry_Int_Tables_number   1
_chemical_formula_structural   Mg16P11
_chemical_formula_sum   'Mg128 P88'
_cell_volume   8793.87561531
_cell_formula_units_Z   8
loop_
 _symmetry_equiv_pos_site_id
 _symmetry_equiv_pos_as_xyz
  1  'x, y, z'
loop_
 _atom_site_type_symbol
 _atom_site_label
 _atom_site_symmetry_multiplicity
 _atom_site_fract_x
 _atom_site_fract_y
 _atom_site_fract_z
 _atom_site_occupancy
  Mg  Mg0  1  0.38649100  0.14626200  0.24594500  1
  Mg  Mg1  1  0.85373800  0.87972300  0.39270200  1
  Mg  Mg2  1  0.62027700  0.11350900  0.19925200  1
  Mg  Mg3  1  0.35373800  0.62027700  0.34729800  1
  Mg  Mg4  1  0.37972300  0.61350900  0.24074800  1
  Mg  Mg5  1  0.14626200  0.62027700  0.39270200  1
  Mg  Mg6  1  0.62027700  0.88649100  0.24074800  1
  Mg  Mg7  1  0.37972300  0.38649100  0.19925200  1
  Mg  Mg8  1  0.64626200  0.87972300  0.34729800  1
  Mg  Mg9  1  0.61350900  0.35373800  0.24594500  1
  Mg  Mg10  1  0.61350900  0.64626200  0.39405500  1
  Mg  Mg11  1  0.38649100  0.85373800  0.39405500  1
  Mg  Mg12  1  0.11350900  0.35373800  0.39405500  1
  Mg  Mg13  1  0.64626200  0.62027700  0.24729800  1
  Mg  Mg14  1  0.87972300  0.38649100  0.24074800  1
  Mg  Mg15  1  0.14626200  0.87972300  0.29270200  1
  Mg  Mg16  1  0.12027700  0.88649100  0.19925200  1
  Mg  Mg17  1  0.35373800  0.87972300  0.24729800  1
  Mg  Mg18  1  0.87972300  0.61350900  0.19925200  1
  Mg  Mg19  1  0.12027700  0.11350900  0.24074800  1
  Mg  Mg20  1  0.85373800  0.62027700  0.29270200  1
  Mg  Mg21  1  0.88649100  0.14626200  0.39405500  1
  Mg  Mg22  1  0.88649100  0.85373800  0.24594500  1
  Mg  Mg23  1  0.11350900  0.64626200  0.24594500  1
  Mg  Mg24  1  0.88649100  0.64626200  0.34594500  1
  Mg  Mg25  1  0.35373800  0.37972300  0.29270200  1
  Mg  Mg26  1  0.12027700  0.61350900  0.29925200  1
  Mg  Mg27  1  0.85373800  0.12027700  0.24729800  1
  Mg  Mg28  1  0.87972300  0.11350900  0.34074800  1
  Mg  Mg29  1  0.64626200  0.12027700  0.29270200  1
  Mg  Mg30  1  0.12027700  0.38649100  0.34074800  1
  Mg  Mg31  1  0.87972300  0.88649100  0.29925200  1
  Mg  Mg32  1  0.14626200  0.37972300  0.24729800  1
  Mg  Mg33  1  0.11350900  0.85373800  0.34594500  1
  Mg  Mg34  1  0.11350900  0.14626200  0.29405500  1
  Mg  Mg35  1  0.88649100  0.35373800  0.29405500  1
  Mg  Mg36  1  0.61350900  0.85373800  0.29405500  1
  Mg  Mg37  1  0.14626200  0.12027700  0.34729800  1
  Mg  Mg38  1  0.37972300  0.88649100  0.34074800  1
  Mg  Mg39  1  0.64626200  0.37972300  0.39270200  1
  Mg  Mg40  1  0.62027700  0.38649100  0.29925200  1
  Mg  Mg41  1  0.85373800  0.37972300  0.34729800  1
  Mg  Mg42  1  0.37972300  0.11350900  0.29925200  1
  Mg  Mg43  1  0.62027700  0.61350900  0.34074800  1
  Mg  Mg44  1  0.35373800  0.12027700  0.39270200  1
  Mg  Mg45  1  0.38649100  0.64626200  0.29405500  1
  Mg  Mg46  1  0.38649100  0.35373800  0.34594500  1
  Mg  Mg47  1  0.61350900  0.14626200  0.34594500  1
  Mg  Mg48  1  0.38649100  0.14626200  0.44594500  1
  Mg  Mg49  1  0.85373800  0.87972300  0.59270200  1
  Mg  Mg50  1  0.62027700  0.11350900  0.39925200  1
  Mg  Mg51  1  0.35373800  0.62027700  0.54729800  1
  Mg  Mg52  1  0.37972300  0.61350900  0.44074800  1
  Mg  Mg53  1  0.14626200  0.62027700  0.59270200  1
  Mg  Mg54  1  0.62027700  0.88649100  0.44074800  1
  Mg  Mg55  1  0.37972300  0.38649100  0.39925200  1
  Mg  Mg56  1  0.64626200  0.87972300  0.54729800  1
  Mg  Mg57  1  0.61350900  0.35373800  0.44594500  1
  Mg  Mg58  1  0.61350900  0.64626200  0.59405500  1
  Mg  Mg59  1  0.38649100  0.85373800  0.59405500  1
  Mg  Mg60  1  0.11350900  0.35373800  0.59405500  1
  Mg  Mg61  1  0.64626200  0.62027700  0.44729800  1
  Mg  Mg62  1  0.87972300  0.38649100  0.44074800  1
  Mg  Mg63  1  0.14626200  0.87972300  0.49270200  1
  Mg  Mg64  1  0.12027700  0.88649100  0.39925200  1
  Mg  Mg65  1  0.35373800  0.87972300  0.44729800  1
  Mg  Mg66  1  0.87972300  0.61350900  0.39925200  1
  Mg  Mg67  1  0.12027700  0.11350900  0.44074800  1
  Mg  Mg68  1  0.85373800  0.62027700  0.49270200  1
  Mg  Mg69  1  0.88649100  0.14626200  0.59405500  1
  Mg  Mg70  1  0.88649100  0.85373800  0.44594500  1
  Mg  Mg71  1  0.11350900  0.64626200  0.44594500  1
  Mg  Mg72  1  0.88649100  0.64626200  0.54594500  1
  Mg  Mg73  1  0.35373800  0.37972300  0.49270200  1
  Mg  Mg74  1  0.12027700  0.61350900  0.49925200  1
  Mg  Mg75  1  0.85373800  0.12027700  0.44729800  1
  Mg  Mg76  1  0.87972300  0.11350900  0.54074800  1
  Mg  Mg77  1  0.64626200  0.12027700  0.49270200  1
  Mg  Mg78  1  0.12027700  0.38649100  0.54074800  1
  Mg  Mg79  1  0.87972300  0.88649100  0.49925200  1
  Mg  Mg80  1  0.14626200  0.37972300  0.44729800  1
  Mg  Mg81  1  0.11350900  0.85373800  0.54594500  1
  Mg  Mg82  1  0.11350900  0.14626200  0.49405500  1
  Mg  Mg83  1  0.88649100  0.35373800  0.49405500  1
  Mg  Mg84  1  0.61350900  0.85373800  0.49405500  1
  Mg  Mg85  1  0.14626200  0.12027700  0.54729800  1
  Mg  Mg86  1  0.37972300  0.88649100  0.54074800  1
  Mg  Mg87  1  0.64626200  0.37972300  0.59270200  1
  Mg  Mg88  1  0.62027700  0.38649100  0.49925200  1
  Mg  Mg89  1  0.85373800  0.37972300  0.54729800  1
  Mg  Mg90  1  0.37972300  0.11350900  0.49925200  1
  Mg  Mg91  1  0.62027700  0.61350900  0.54074800  1
  Mg  Mg92  1  0.35373800  0.12027700  0.59270200  1
  Mg  Mg93  1  0.38649100  0.64626200  0.49405500  1
  Mg  Mg94  1  0.38649100  0.35373800  0.54594500  1
  Mg  Mg95  1  0.61350900  0.14626200  0.54594500  1
  Mg  Mg96  1  0.38649100  0.14626200  0.64594500  1
  Mg  Mg97  1  0.62027700  0.11350900  0.59925200  1
  Mg  Mg98  1  0.37972300  0.61350900  0.64074800  1
  Mg  Mg99  1  0.62027700  0.88649100  0.64074800  1
  Mg  Mg100  1  0.37972300  0.38649100  0.59925200  1
  Mg  Mg101  1  0.61350900  0.35373800  0.64594500  1
  Mg  Mg102  1  0.64626200  0.62027700  0.64729800  1
  Mg  Mg103  1  0.87972300  0.38649100  0.64074800  1
  Mg  Mg104  1  0.14626200  0.87972300  0.69270200  1
  Mg  Mg105  1  0.12027700  0.88649100  0.59925200  1
  Mg  Mg106  1  0.35373800  0.87972300  0.64729800  1
  Mg  Mg107  1  0.87972300  0.61350900  0.59925200  1
  Mg  Mg108  1  0.12027700  0.11350900  0.64074800  1
  Mg  Mg109  1  0.85373800  0.62027700  0.69270200  1
  Mg  Mg110  1  0.88649100  0.85373800  0.64594500  1
  Mg  Mg111  1  0.11350900  0.64626200  0.64594500  1
  Mg  Mg112  1  0.35373800  0.37972300  0.69270200  1
  Mg  Mg113  1  0.12027700  0.61350900  0.69925200  1
  Mg  Mg114  1  0.85373800  0.12027700  0.64729800  1
  Mg  Mg115  1  0.87972300  0.11350900  0.74074800  1
  Mg  Mg116  1  0.64626200  0.12027700  0.69270200  1
  Mg  Mg117  1  0.12027700  0.38649100  0.74074800  1
  Mg  Mg118  1  0.87972300  0.88649100  0.69925200  1
  Mg  Mg119  1  0.14626200  0.37972300  0.64729800  1
  Mg  Mg120  1  0.11350900  0.14626200  0.69405500  1
  Mg  Mg121  1  0.88649100  0.35373800  0.69405500  1
  Mg  Mg122  1  0.61350900  0.85373800  0.69405500  1
  Mg  Mg123  1  0.37972300  0.88649100  0.74074800  1
  Mg  Mg124  1  0.62027700  0.38649100  0.69925200  1
  Mg  Mg125  1  0.37972300  0.11350900  0.69925200  1
  Mg  Mg126  1  0.62027700  0.61350900  0.74074800  1
  Mg  Mg127  1  0.38649100  0.64626200  0.69405500  1
  P  P128  1  0.25000000  0.25000000  0.22000000  1
  P  P129  1  0.75000000  0.75000000  0.22000000  1
  P  P130  1  0.25000000  0.75000000  0.32000000  1
  P  P131  1  0.25000000  0.75000000  0.22000000  1
  P  P132  1  0.47621100  0.50000000  0.32000000  1
  P  P133  1  0.00000000  0.75000000  0.27475800  1
  P  P134  1  0.25000000  0.02378900  0.27000000  1
  P  P135  1  0.50000000  0.75000000  0.26524200  1
  P  P136  1  0.25000000  0.97621100  0.37000000  1
  P  P137  1  0.02378900  0.50000000  0.22000000  1
  P  P138  1  0.02378900  0.00000000  0.32000000  1
  P  P139  1  0.50000000  0.75000000  0.36524200  1
  P  P140  1  0.25000000  0.47621100  0.37000000  1
  P  P141  1  0.00000000  0.75000000  0.37475800  1
  P  P142  1  0.25000000  0.52378900  0.27000000  1
  P  P143  1  0.47621100  0.00000000  0.22000000  1
  P  P144  1  0.75000000  0.75000000  0.32000000  1
  P  P145  1  0.25000000  0.25000000  0.32000000  1
  P  P146  1  0.75000000  0.25000000  0.22000000  1
  P  P147  1  0.75000000  0.25000000  0.32000000  1
  P  P148  1  0.97621100  0.00000000  0.22000000  1
  P  P149  1  0.50000000  0.25000000  0.37475800  1
  P  P150  1  0.75000000  0.52378900  0.37000000  1
  P  P151  1  0.00000000  0.25000000  0.36524200  1
  P  P152  1  0.75000000  0.47621100  0.27000000  1
  P  P153  1  0.52378900  0.00000000  0.32000000  1
  P  P154  1  0.52378900  0.50000000  0.22000000  1
  P  P155  1  0.00000000  0.25000000  0.26524200  1
  P  P156  1  0.75000000  0.97621100  0.27000000  1
  P  P157  1  0.50000000  0.25000000  0.27475800  1
  P  P158  1  0.75000000  0.02378900  0.37000000  1
  P  P159  1  0.97621100  0.50000000  0.32000000  1
  P  P160  1  0.25000000  0.25000000  0.42000000  1
  P  P161  1  0.75000000  0.75000000  0.42000000  1
  P  P162  1  0.25000000  0.75000000  0.52000000  1
  P  P163  1  0.25000000  0.75000000  0.42000000  1
  P  P164  1  0.47621100  0.50000000  0.52000000  1
  P  P165  1  0.00000000  0.75000000  0.47475800  1
  P  P166  1  0.25000000  0.02378900  0.47000000  1
  P  P167  1  0.50000000  0.75000000  0.46524200  1
  P  P168  1  0.25000000  0.97621100  0.57000000  1
  P  P169  1  0.02378900  0.50000000  0.42000000  1
  P  P170  1  0.02378900  0.00000000  0.52000000  1
  P  P171  1  0.50000000  0.75000000  0.56524200  1
  P  P172  1  0.25000000  0.47621100  0.57000000  1
  P  P173  1  0.00000000  0.75000000  0.57475800  1
  P  P174  1  0.25000000  0.52378900  0.47000000  1
  P  P175  1  0.47621100  0.00000000  0.42000000  1
  P  P176  1  0.75000000  0.75000000  0.52000000  1
  P  P177  1  0.25000000  0.25000000  0.52000000  1
  P  P178  1  0.75000000  0.25000000  0.42000000  1
  P  P179  1  0.75000000  0.25000000  0.52000000  1
  P  P180  1  0.97621100  0.00000000  0.42000000  1
  P  P181  1  0.50000000  0.25000000  0.57475800  1
  P  P182  1  0.75000000  0.52378900  0.57000000  1
  P  P183  1  0.00000000  0.25000000  0.56524200  1
  P  P184  1  0.75000000  0.47621100  0.47000000  1
  P  P185  1  0.52378900  0.00000000  0.52000000  1
  P  P186  1  0.52378900  0.50000000  0.42000000  1
  P  P187  1  0.00000000  0.25000000  0.46524200  1
  P  P188  1  0.75000000  0.97621100  0.47000000  1
  P  P189  1  0.50000000  0.25000000  0.47475800  1
  P  P190  1  0.75000000  0.02378900  0.57000000  1
  P  P191  1  0.97621100  0.50000000  0.52000000  1
  P  P192  1  0.25000000  0.25000000  0.62000000  1
  P  P193  1  0.75000000  0.75000000  0.62000000  1
  P  P194  1  0.25000000  0.75000000  0.72000000  1
  P  P195  1  0.25000000  0.75000000  0.62000000  1
  P  P196  1  0.47621100  0.50000000  0.72000000  1
  P  P197  1  0.00000000  0.75000000  0.67475800  1
  P  P198  1  0.25000000  0.02378900  0.67000000  1
  P  P199  1  0.50000000  0.75000000  0.66524200  1
  P  P200  1  0.02378900  0.50000000  0.62000000  1
  P  P201  1  0.02378900  0.00000000  0.72000000  1
  P  P202  1  0.25000000  0.52378900  0.67000000  1
  P  P203  1  0.47621100  0.00000000  0.62000000  1
  P  P204  1  0.75000000  0.75000000  0.72000000  1
  P  P205  1  0.25000000  0.25000000  0.72000000  1
  P  P206  1  0.75000000  0.25000000  0.62000000  1
  P  P207  1  0.75000000  0.25000000  0.72000000  1
  P  P208  1  0.97621100  0.00000000  0.62000000  1
  P  P209  1  0.75000000  0.47621100  0.67000000  1
  P  P210  1  0.52378900  0.00000000  0.72000000  1
  P  P211  1  0.52378900  0.50000000  0.62000000  1
  P  P212  1  0.00000000  0.25000000  0.66524200  1
  P  P213  1  0.75000000  0.97621100  0.67000000  1
  P  P214  1  0.50000000  0.25000000  0.67475800  1
  P  P215  1  0.97621100  0.50000000  0.72000000  1
