# generated using pymatgen
data_Mg20Zn113
_symmetry_space_group_name_H-M   'P 1'
_cell_length_a   9.38239124
_cell_length_b   9.87228504
_cell_length_c   47.88422100
_cell_angle_alpha   93.42143374
_cell_angle_beta   90.35613488
_cell_angle_gamma   117.39448675
_symmetry_Int_Tables_number   1
_chemical_formula_structural   Mg20Zn113
_chemical_formula_sum   'Mg20 Zn113'
_cell_volume   3928.07221196
_cell_formula_units_Z   1
loop_
 _symmetry_equiv_pos_site_id
 _symmetry_equiv_pos_as_xyz
  1  'x, y, z'
loop_
 _atom_site_type_symbol
 _atom_site_label
 _atom_site_symmetry_multiplicity
 _atom_site_fract_x
 _atom_site_fract_y
 _atom_site_fract_z
 _atom_site_occupancy
  Mg  Mg0  1  0.52480200  0.35768100  0.69906000  1
  Mg  Mg1  1  0.22845200  0.14882700  0.65510700  1
  Mg  Mg2  1  0.68368200  0.70164500  0.67995100  1
  Mg  Mg3  1  0.06957200  0.80486300  0.67421600  1
  Mg  Mg4  1  0.42480200  0.15768100  0.59906000  1
  Mg  Mg5  1  0.12845200  0.94882700  0.55510700  1
  Mg  Mg6  1  0.58368200  0.50164500  0.57995100  1
  Mg  Mg7  1  0.96957200  0.60486300  0.57421600  1
  Mg  Mg8  1  0.32480200  0.95768100  0.49906000  1
  Mg  Mg9  1  0.02845200  0.74882700  0.45510700  1
  Mg  Mg10  1  0.48368200  0.30164500  0.47995100  1
  Mg  Mg11  1  0.86957200  0.40486300  0.47421600  1
  Mg  Mg12  1  0.22480200  0.75768100  0.39906000  1
  Mg  Mg13  1  0.92845200  0.54882700  0.35510700  1
  Mg  Mg14  1  0.38368200  0.10164500  0.37995100  1
  Mg  Mg15  1  0.76957200  0.20486300  0.37421600  1
  Mg  Mg16  1  0.12480200  0.55768100  0.29906000  1
  Mg  Mg17  1  0.82845200  0.34882700  0.25510700  1
  Mg  Mg18  1  0.28368200  0.90164500  0.27995100  1
  Mg  Mg19  1  0.66957200  0.00486300  0.27421600  1
  Zn  Zn20  1  0.61019000  0.91311100  0.72375800  1
  Zn  Zn21  1  0.77221000  0.23103500  0.70609600  1
  Zn  Zn22  1  0.19798200  0.08225200  0.71436100  1
  Zn  Zn23  1  0.65527200  0.62425600  0.73980500  1
  Zn  Zn24  1  0.24306400  0.79339700  0.73040900  1
  Zn  Zn25  1  0.71033400  0.39910800  0.75231400  1
  Zn  Zn26  1  0.46164900  0.12559700  0.73941400  1
  Zn  Zn27  1  0.39160500  0.58091200  0.71475300  1
  Zn  Zn28  1  0.96375200  0.13453700  0.73952900  1
  Zn  Zn29  1  0.08104400  0.47547300  0.74807100  1
  Zn  Zn30  1  0.88950200  0.57197100  0.71463800  1
  Zn  Zn31  1  0.92662700  0.85325400  0.72708300  1
  Zn  Zn32  1  0.14292000  0.30740100  0.70185300  1
  Zn  Zn33  1  0.37662700  0.75325400  0.67708300  1
  Zn  Zn34  1  0.51019000  0.71311100  0.62375800  1
  Zn  Zn35  1  0.67221000  0.03103500  0.60609600  1
  Zn  Zn36  1  0.09798200  0.88225200  0.61436100  1
  Zn  Zn37  1  0.55527200  0.42425600  0.63980500  1
  Zn  Zn38  1  0.84003200  0.47303200  0.66516800  1
  Zn  Zn39  1  0.34103400  0.47976900  0.66418200  1
  Zn  Zn40  1  0.14306400  0.59339700  0.63040900  1
  Zn  Zn41  1  0.61033400  0.19910800  0.65231400  1
  Zn  Zn42  1  0.36164900  0.92559700  0.63941400  1
  Zn  Zn43  1  0.29160500  0.38091200  0.61475300  1
  Zn  Zn44  1  0.41222000  0.02673900  0.68998500  1
  Zn  Zn45  1  0.86375200  0.93453700  0.63952900  1
  Zn  Zn46  1  0.98104400  0.27547300  0.64807100  1
  Zn  Zn47  1  0.78950200  0.37197100  0.61463800  1
  Zn  Zn48  1  0.91322200  0.03347600  0.68899900  1
  Zn  Zn49  1  0.82662700  0.65325400  0.62708300  1
  Zn  Zn50  1  0.10930300  0.53795800  0.68904400  1
  Zn  Zn51  1  0.64395100  0.96855000  0.66512200  1
  Zn  Zn52  1  0.04292000  0.10740100  0.60185300  1
  Zn  Zn53  1  0.27662700  0.55325400  0.57708300  1
  Zn  Zn54  1  0.41019000  0.51311100  0.52375800  1
  Zn  Zn55  1  0.57221000  0.83103500  0.50609600  1
  Zn  Zn56  1  0.99798200  0.68225200  0.51436100  1
  Zn  Zn57  1  0.45527200  0.22425600  0.53980500  1
  Zn  Zn58  1  0.74003200  0.27303200  0.56516800  1
  Zn  Zn59  1  0.24103400  0.27976900  0.56418200  1
  Zn  Zn60  1  0.04306400  0.39339700  0.53040900  1
  Zn  Zn61  1  0.51033400  0.99910800  0.55231400  1
  Zn  Zn62  1  0.26164900  0.72559700  0.53941400  1
  Zn  Zn63  1  0.19160500  0.18091200  0.51475300  1
  Zn  Zn64  1  0.31222000  0.82673900  0.58998500  1
  Zn  Zn65  1  0.76375200  0.73453700  0.53952900  1
  Zn  Zn66  1  0.88104400  0.07547300  0.54807100  1
  Zn  Zn67  1  0.68950200  0.17197100  0.51463800  1
  Zn  Zn68  1  0.81322200  0.83347600  0.58899900  1
  Zn  Zn69  1  0.72662700  0.45325400  0.52708300  1
  Zn  Zn70  1  0.00930300  0.33795800  0.58904400  1
  Zn  Zn71  1  0.54395100  0.76855000  0.56512200  1
  Zn  Zn72  1  0.94292000  0.90740100  0.50185300  1
  Zn  Zn73  1  0.17662700  0.35325400  0.47708300  1
  Zn  Zn74  1  0.31019000  0.31311100  0.42375800  1
  Zn  Zn75  1  0.47221000  0.63103500  0.40609600  1
  Zn  Zn76  1  0.89798200  0.48225200  0.41436100  1
  Zn  Zn77  1  0.35527200  0.02425600  0.43980500  1
  Zn  Zn78  1  0.64003200  0.07303200  0.46516800  1
  Zn  Zn79  1  0.14103400  0.07976900  0.46418200  1
  Zn  Zn80  1  0.94306400  0.19339700  0.43040900  1
  Zn  Zn81  1  0.41033400  0.79910800  0.45231400  1
  Zn  Zn82  1  0.16164900  0.52559700  0.43941400  1
  Zn  Zn83  1  0.09160500  0.98091200  0.41475300  1
  Zn  Zn84  1  0.21222000  0.62673900  0.48998500  1
  Zn  Zn85  1  0.66375200  0.53453700  0.43952900  1
  Zn  Zn86  1  0.78104400  0.87547300  0.44807100  1
  Zn  Zn87  1  0.58950200  0.97197100  0.41463800  1
  Zn  Zn88  1  0.71322200  0.63347600  0.48899900  1
  Zn  Zn89  1  0.62662700  0.25325400  0.42708300  1
  Zn  Zn90  1  0.90930300  0.13795800  0.48904400  1
  Zn  Zn91  1  0.44395100  0.56855000  0.46512200  1
  Zn  Zn92  1  0.84292000  0.70740100  0.40185300  1
  Zn  Zn93  1  0.07662700  0.15325400  0.37708300  1
  Zn  Zn94  1  0.21019000  0.11311100  0.32375800  1
  Zn  Zn95  1  0.37221000  0.43103500  0.30609600  1
  Zn  Zn96  1  0.79798200  0.28225200  0.31436100  1
  Zn  Zn97  1  0.25527200  0.82425600  0.33980500  1
  Zn  Zn98  1  0.54003200  0.87303200  0.36516800  1
  Zn  Zn99  1  0.04103400  0.87976900  0.36418200  1
  Zn  Zn100  1  0.84306400  0.99339700  0.33040900  1
  Zn  Zn101  1  0.31033400  0.59910800  0.35231400  1
  Zn  Zn102  1  0.06164900  0.32559700  0.33941400  1
  Zn  Zn103  1  0.99160500  0.78091200  0.31475300  1
  Zn  Zn104  1  0.11222000  0.42673900  0.38998500  1
  Zn  Zn105  1  0.56375200  0.33453700  0.33952900  1
  Zn  Zn106  1  0.68104400  0.67547300  0.34807100  1
  Zn  Zn107  1  0.48950200  0.77197100  0.31463800  1
  Zn  Zn108  1  0.61322200  0.43347600  0.38899900  1
  Zn  Zn109  1  0.52662700  0.05325400  0.32708300  1
  Zn  Zn110  1  0.80930300  0.93795800  0.38904400  1
  Zn  Zn111  1  0.34395100  0.36855000  0.36512200  1
  Zn  Zn112  1  0.74292000  0.50740100  0.30185300  1
  Zn  Zn113  1  0.97662700  0.95325400  0.27708300  1
  Zn  Zn114  1  0.11019000  0.91311100  0.22375800  1
  Zn  Zn115  1  0.27221000  0.23103500  0.20609600  1
  Zn  Zn116  1  0.69798200  0.08225200  0.21436100  1
  Zn  Zn117  1  0.15527200  0.62425600  0.23980500  1
  Zn  Zn118  1  0.44003200  0.67303200  0.26516800  1
  Zn  Zn119  1  0.94103400  0.67976900  0.26418200  1
  Zn  Zn120  1  0.74306400  0.79339700  0.23040900  1
  Zn  Zn121  1  0.21033400  0.39910800  0.25231400  1
  Zn  Zn122  1  0.96164900  0.12559700  0.23941400  1
  Zn  Zn123  1  0.89160500  0.58091200  0.21475300  1
  Zn  Zn124  1  0.01222000  0.22673900  0.28998500  1
  Zn  Zn125  1  0.46375200  0.13453700  0.23952900  1
  Zn  Zn126  1  0.58104400  0.47547300  0.24807100  1
  Zn  Zn127  1  0.38950200  0.57197100  0.21463800  1
  Zn  Zn128  1  0.51322200  0.23347600  0.28899900  1
  Zn  Zn129  1  0.42662700  0.85325400  0.22708300  1
  Zn  Zn130  1  0.70930300  0.73795800  0.28904400  1
  Zn  Zn131  1  0.24395100  0.16855000  0.26512200  1
  Zn  Zn132  1  0.64292000  0.30740100  0.20185300  1
