# generated using pymatgen
data_CeMg
_symmetry_space_group_name_H-M   'P 1'
_cell_length_a   3.48032000
_cell_length_b   10.46698345
_cell_length_c   45.97217700
_cell_angle_alpha   92.82824281
_cell_angle_beta   90.00000000
_cell_angle_gamma   90.00000000
_symmetry_Int_Tables_number   1
_chemical_formula_structural   CeMg
_chemical_formula_sum   'Ce20 Mg20'
_cell_volume   1672.65535080
_cell_formula_units_Z   20
loop_
 _symmetry_equiv_pos_site_id
 _symmetry_equiv_pos_as_xyz
  1  'x, y, z'
loop_
 _atom_site_type_symbol
 _atom_site_label
 _atom_site_symmetry_multiplicity
 _atom_site_fract_x
 _atom_site_fract_y
 _atom_site_fract_z
 _atom_site_occupancy
  Ce  Ce0  1  0.50000000  0.47451700  0.30707100  1
  Ce  Ce1  1  0.00000000  0.15048300  0.19292900  1
  Ce  Ce2  1  0.00000000  0.91201700  0.24457100  1
  Ce  Ce3  1  0.50000000  0.71298300  0.25542900  1
  Ce  Ce4  1  0.50000000  0.59951700  0.43207100  1
  Ce  Ce5  1  0.00000000  0.27548300  0.31792900  1
  Ce  Ce6  1  0.00000000  0.03701700  0.36957100  1
  Ce  Ce7  1  0.50000000  0.83798300  0.38042900  1
  Ce  Ce8  1  0.50000000  0.72451700  0.55707100  1
  Ce  Ce9  1  0.00000000  0.40048300  0.44292900  1
  Ce  Ce10  1  0.00000000  0.16201700  0.49457100  1
  Ce  Ce11  1  0.50000000  0.96298300  0.50542900  1
  Ce  Ce12  1  0.50000000  0.84951700  0.68207100  1
  Ce  Ce13  1  1.00000000  0.52548300  0.56792900  1
  Ce  Ce14  1  0.00000000  0.28701700  0.61957100  1
  Ce  Ce15  1  0.50000000  0.08798300  0.63042900  1
  Ce  Ce16  1  0.50000000  0.97451700  0.80707100  1
  Ce  Ce17  1  1.00000000  0.65048300  0.69292900  1
  Ce  Ce18  1  1.00000000  0.41201700  0.74457100  1
  Ce  Ce19  1  0.50000000  0.21298300  0.75542900  1
  Mg  Mg20  1  0.50000000  0.19694400  0.25600400  1
  Mg  Mg21  1  0.00000000  0.42805600  0.24399600  1
  Mg  Mg22  1  1.00000000  0.63444400  0.19350400  1
  Mg  Mg23  1  0.50000000  0.99055600  0.30649600  1
  Mg  Mg24  1  0.50000000  0.32194400  0.38100400  1
  Mg  Mg25  1  0.00000000  0.55305600  0.36899600  1
  Mg  Mg26  1  0.00000000  0.75944400  0.31850400  1
  Mg  Mg27  1  0.50000000  0.11555600  0.43149600  1
  Mg  Mg28  1  0.50000000  0.44694400  0.50600400  1
  Mg  Mg29  1  0.00000000  0.67805600  0.49399600  1
  Mg  Mg30  1  0.00000000  0.88444400  0.44350400  1
  Mg  Mg31  1  0.50000000  0.24055600  0.55649600  1
  Mg  Mg32  1  0.50000000  0.57194400  0.63100400  1
  Mg  Mg33  1  0.00000000  0.80305600  0.61899600  1
  Mg  Mg34  1  0.00000000  0.00944400  0.56850400  1
  Mg  Mg35  1  0.50000000  0.36555600  0.68149600  1
  Mg  Mg36  1  0.50000000  0.69694400  0.75600400  1
  Mg  Mg37  1  0.00000000  0.92805600  0.74399600  1
  Mg  Mg38  1  0.00000000  0.13444400  0.69350400  1
  Mg  Mg39  1  0.50000000  0.49055600  0.80649600  1
