# generated using pymatgen
data_Mg7Si3
_symmetry_space_group_name_H-M   'P 1'
_cell_length_a   4.49958000
_cell_length_b   4.49957949
_cell_length_c   44.08669600
_cell_angle_alpha   90.00000000
_cell_angle_beta   90.00000000
_cell_angle_gamma   120.00000373
_symmetry_Int_Tables_number   1
_chemical_formula_structural   Mg7Si3
_chemical_formula_sum   'Mg14 Si6'
_cell_volume   773.00459304
_cell_formula_units_Z   2
loop_
 _symmetry_equiv_pos_site_id
 _symmetry_equiv_pos_as_xyz
  1  'x, y, z'
loop_
 _atom_site_type_symbol
 _atom_site_label
 _atom_site_symmetry_multiplicity
 _atom_site_fract_x
 _atom_site_fract_y
 _atom_site_fract_z
 _atom_site_occupancy
  Mg  Mg0  1  0.83333300  0.91666700  0.25694400  1
  Mg  Mg1  1  0.16666700  0.58333300  0.21527800  1
  Mg  Mg2  1  0.16666700  0.58333300  0.34027800  1
  Mg  Mg3  1  0.50000000  0.25000000  0.29861100  1
  Mg  Mg4  1  0.50000000  0.25000000  0.42361100  1
  Mg  Mg5  1  0.83333300  0.91666700  0.38194400  1
  Mg  Mg6  1  0.83333300  0.91666700  0.50694400  1
  Mg  Mg7  1  0.16666700  0.58333300  0.46527800  1
  Mg  Mg8  1  0.16666700  0.58333300  0.59027800  1
  Mg  Mg9  1  0.50000000  0.25000000  0.54861100  1
  Mg  Mg10  1  0.50000000  0.25000000  0.67361100  1
  Mg  Mg11  1  0.83333300  0.91666700  0.63194400  1
  Mg  Mg12  1  0.83333300  0.91666700  0.75694400  1
  Mg  Mg13  1  0.16666700  0.58333300  0.71527800  1
  Si  Si14  1  0.16666700  0.58333300  0.27777800  1
  Si  Si15  1  0.50000000  0.25000000  0.36111100  1
  Si  Si16  1  0.83333300  0.91666700  0.44444400  1
  Si  Si17  1  0.16666700  0.58333300  0.52777800  1
  Si  Si18  1  0.50000000  0.25000000  0.61111100  1
  Si  Si19  1  0.83333300  0.91666700  0.69444400  1
