# generated using pymatgen
data_Li18Mg5
_symmetry_space_group_name_H-M   'P 1'
_cell_length_a   3.06669500
_cell_length_b   12.84118484
_cell_length_c   42.49336600
_cell_angle_alpha   93.95313665
_cell_angle_beta   90.00000000
_cell_angle_gamma   96.85796838
_symmetry_Int_Tables_number   1
_chemical_formula_structural   Li18Mg5
_chemical_formula_sum   'Li36 Mg10'
_cell_volume   1657.40575556
_cell_formula_units_Z   2
loop_
 _symmetry_equiv_pos_site_id
 _symmetry_equiv_pos_as_xyz
  1  'x, y, z'
loop_
 _atom_site_type_symbol
 _atom_site_label
 _atom_site_symmetry_multiplicity
 _atom_site_fract_x
 _atom_site_fract_y
 _atom_site_fract_z
 _atom_site_occupancy
  Li  Li0  1  0.44791700  0.79603900  0.28116700  1
  Li  Li1  1  0.84928200  0.59877000  0.25622400  1
  Li  Li2  1  0.75051300  0.40123000  0.29377600  1
  Li  Li3  1  0.15187800  0.20396100  0.26883300  1
  Li  Li4  1  0.94791700  0.79603900  0.34366700  1
  Li  Li5  1  0.34928200  0.59877000  0.31872400  1
  Li  Li6  1  0.25051300  0.40123000  0.35627600  1
  Li  Li7  1  0.65187800  0.20396100  0.33133300  1
  Li  Li8  1  0.44791700  0.79603900  0.40616700  1
  Li  Li9  1  0.84928200  0.59877000  0.38122400  1
  Li  Li10  1  0.75051300  0.40123000  0.41877600  1
  Li  Li11  1  0.15187800  0.20396100  0.39383300  1
  Li  Li12  1  0.94791700  0.79603900  0.46866700  1
  Li  Li13  1  0.34928200  0.59877000  0.44372400  1
  Li  Li14  1  0.25051300  0.40123000  0.48127600  1
  Li  Li15  1  0.65187800  0.20396100  0.45633300  1
  Li  Li16  1  0.44791700  0.79603900  0.53116700  1
  Li  Li17  1  0.84928200  0.59877000  0.50622400  1
  Li  Li18  1  0.75051300  0.40123000  0.54377600  1
  Li  Li19  1  0.15187800  0.20396100  0.51883300  1
  Li  Li20  1  0.94791700  0.79603900  0.59366700  1
  Li  Li21  1  0.34928200  0.59877000  0.56872400  1
  Li  Li22  1  0.25051300  0.40123000  0.60627600  1
  Li  Li23  1  0.65187800  0.20396100  0.58133300  1
  Li  Li24  1  0.44791700  0.79603900  0.65616700  1
  Li  Li25  1  0.84928200  0.59877000  0.63122400  1
  Li  Li26  1  0.75051300  0.40123000  0.66877600  1
  Li  Li27  1  0.15187800  0.20396100  0.64383300  1
  Li  Li28  1  0.94791700  0.79603900  0.71866700  1
  Li  Li29  1  0.34928200  0.59877000  0.69372400  1
  Li  Li30  1  0.25051300  0.40123000  0.73127600  1
  Li  Li31  1  0.65187800  0.20396100  0.70633300  1
  Li  Li32  1  0.44791700  0.79603900  0.78116700  1
  Li  Li33  1  0.84928200  0.59877000  0.75622400  1
  Li  Li34  1  0.75051300  0.40123000  0.79377600  1
  Li  Li35  1  0.15187800  0.20396100  0.76883300  1
  Mg  Mg36  1  0.54989700  1.00000000  0.24375000  1
  Mg  Mg37  1  0.04989700  0.00000000  0.30625000  1
  Mg  Mg38  1  0.54989700  1.00000000  0.36875000  1
  Mg  Mg39  1  0.04989700  0.00000000  0.43125000  1
  Mg  Mg40  1  0.54989700  1.00000000  0.49375000  1
  Mg  Mg41  1  0.04989700  1.00000000  0.55625000  1
  Mg  Mg42  1  0.54989700  1.00000000  0.61875000  1
  Mg  Mg43  1  0.04989700  1.00000000  0.68125000  1
  Mg  Mg44  1  0.54989700  1.00000000  0.74375000  1
  Mg  Mg45  1  0.04989700  1.00000000  0.80625000  1
