# generated using pymatgen
data_Mg50Zn91
_symmetry_space_group_name_H-M   'P 1'
_cell_length_a   5.07402209
_cell_length_b   22.10207791
_cell_length_c   42.67993100
_cell_angle_alpha   98.00895109
_cell_angle_beta   93.24549340
_cell_angle_gamma   83.83945518
_symmetry_Int_Tables_number   1
_chemical_formula_structural   Mg50Zn91
_chemical_formula_sum   'Mg50 Zn91'
_cell_volume   4708.12433190
_cell_formula_units_Z   1
loop_
 _symmetry_equiv_pos_site_id
 _symmetry_equiv_pos_as_xyz
  1  'x, y, z'
loop_
 _atom_site_type_symbol
 _atom_site_label
 _atom_site_symmetry_multiplicity
 _atom_site_fract_x
 _atom_site_fract_y
 _atom_site_fract_z
 _atom_site_occupancy
  Mg  Mg0  1  0.60011600  0.05201400  0.22659800  1
  Mg  Mg1  1  0.26398100  0.89194300  0.39983200  1
  Mg  Mg2  1  0.03822200  0.32482600  0.36394400  1
  Mg  Mg3  1  0.87436600  0.67200300  0.38830500  1
  Mg  Mg4  1  0.97653100  0.31873900  0.24206900  1
  Mg  Mg5  1  0.68284300  0.90417300  0.23640300  1
  Mg  Mg6  1  0.04426600  0.23379200  0.29734800  1
  Mg  Mg7  1  0.81793800  0.71260600  0.32442200  1
  Mg  Mg8  1  0.58756000  0.14393900  0.29245400  1
  Mg  Mg9  1  0.91577400  0.46587000  0.27065800  1
  Mg  Mg10  1  0.65408200  0.05978300  0.34878300  1
  Mg  Mg11  1  0.30474400  0.64066900  0.22027300  1
  Mg  Mg12  1  0.32165100  0.75480100  0.37266000  1
  Mg  Mg13  1  0.49160400  0.41424000  0.36981000  1
  Mg  Mg14  1  0.20070000  0.97036800  0.34291700  1
  Mg  Mg15  1  0.84803800  0.55081700  0.21538000  1
  Mg  Mg16  1  0.29218800  0.73259400  0.28612900  1
  Mg  Mg17  1  0.20946100  0.88043600  0.27632500  1
  Mg  Mg18  1  0.42832300  0.49266600  0.31289500  1
  Mg  Mg19  1  0.37065400  0.62980800  0.34006800  1
  Mg  Mg20  1  0.40011600  0.65201400  0.42659800  1
  Mg  Mg21  1  0.06398100  0.49194300  0.59983200  1
  Mg  Mg22  1  0.83822200  0.92482600  0.56394400  1
  Mg  Mg23  1  0.67436600  0.27200300  0.58830500  1
  Mg  Mg24  1  0.77653100  0.91873900  0.44206900  1
  Mg  Mg25  1  0.48284300  0.50417300  0.43640300  1
  Mg  Mg26  1  0.84426600  0.83379200  0.49734800  1
  Mg  Mg27  1  0.61793800  0.31260600  0.52442200  1
  Mg  Mg28  1  0.38756000  0.74393900  0.49245400  1
  Mg  Mg29  1  0.71577400  0.06587000  0.47065800  1
  Mg  Mg30  1  0.45408200  0.65978300  0.54878300  1
  Mg  Mg31  1  0.10474400  0.24066900  0.42027300  1
  Mg  Mg32  1  0.12165100  0.35480100  0.57266000  1
  Mg  Mg33  1  0.29160400  0.01424000  0.56981000  1
  Mg  Mg34  1  0.00070000  0.57036800  0.54291700  1
  Mg  Mg35  1  0.64803800  0.15081700  0.41538000  1
  Mg  Mg36  1  0.09218800  0.33259400  0.48612900  1
  Mg  Mg37  1  0.00946100  0.48043600  0.47632500  1
  Mg  Mg38  1  0.22832300  0.09266600  0.51289500  1
  Mg  Mg39  1  0.17065400  0.22980800  0.54006800  1
  Mg  Mg40  1  0.20011600  0.25201400  0.62659800  1
  Mg  Mg41  1  0.57653100  0.51873900  0.64206900  1
  Mg  Mg42  1  0.28284300  0.10417300  0.63640300  1
  Mg  Mg43  1  0.64426600  0.43379200  0.69734800  1
  Mg  Mg44  1  0.18756000  0.34393900  0.69245400  1
  Mg  Mg45  1  0.51577400  0.66587000  0.67065800  1
  Mg  Mg46  1  0.90474400  0.84066900  0.62027300  1
  Mg  Mg47  1  0.44803800  0.75081700  0.61538000  1
  Mg  Mg48  1  0.89218800  0.93259400  0.68612900  1
  Mg  Mg49  1  0.80946100  0.08043600  0.67632500  1
  Zn  Zn50  1  0.50574700  0.27661300  0.26806500  1
  Zn  Zn51  1  0.79817300  0.81617500  0.38573500  1
  Zn  Zn52  1  0.12815900  0.10002800  0.32107500  1
  Zn  Zn53  1  0.60178700  0.60121100  0.27775500  1
  Zn  Zn54  1  0.15309300  0.41767200  0.20529800  1
  Zn  Zn55  1  0.78548500  0.18576700  0.23439800  1
  Zn  Zn56  1  0.84615200  0.19230400  0.35636400  1
  Zn  Zn57  1  0.38655700  0.50799600  0.24466300  1
  Zn  Zn58  1  0.70704900  0.92454800  0.30878900  1
  Zn  Zn59  1  0.23289200  0.36685400  0.30752800  1
  Zn  Zn60  1  0.89837700  0.00996800  0.28529400  1
  Zn  Zn61  1  0.14027300  0.97791100  0.23196200  1
  Zn  Zn62  1  0.54096500  0.27764200  0.33049600  1
  Zn  Zn63  1  0.96254000  0.45525800  0.34107500  1
  Zn  Zn64  1  0.89413200  0.56843400  0.32699300  1
  Zn  Zn65  1  0.18525500  0.86006100  0.20393800  1
  Zn  Zn66  1  0.18874700  0.54782900  0.37877300  1
  Zn  Zn67  1  0.65941200  0.41775500  0.20520000  1
  Zn  Zn68  1  0.10681900  0.59884100  0.27833000  1
  Zn  Zn69  1  0.15133900  0.10696700  0.38223200  1
  Zn  Zn70  1  0.50355700  0.83678000  0.33395400  1
  Zn  Zn71  1  0.73921200  0.36693700  0.30742900  1
  Zn  Zn72  1  0.34615200  0.19230400  0.35636400  1
  Zn  Zn73  1  0.08837200  0.10043200  0.26003100  1
  Zn  Zn74  1  0.40299600  0.00905000  0.28549000  1
  Zn  Zn75  1  0.67419200  0.54997600  0.37860800  1
  Zn  Zn76  1  0.80393300  0.68417700  0.25269600  1
  Zn  Zn77  1  0.01811300  0.83463200  0.33411900  1
  Zn  Zn78  1  0.72976400  0.92935000  0.37165200  1
  Zn  Zn79  1  0.48930800  0.77555800  0.22723800  1
  Zn  Zn80  1  0.29051700  0.18339800  0.23497200  1
  Zn  Zn81  1  0.44615200  0.39230400  0.25636400  1
  Zn  Zn82  1  0.99392800  0.77464100  0.22743400  1
  Zn  Zn83  1  0.75203200  0.80669700  0.28076500  1
  Zn  Zn84  1  0.56414600  0.28458000  0.39165200  1
  Zn  Zn85  1  0.30574700  0.87661300  0.46806500  1
  Zn  Zn86  1  0.59817300  0.41617500  0.58573500  1
  Zn  Zn87  1  0.92815900  0.70002800  0.52107500  1
  Zn  Zn88  1  0.40178700  0.20121100  0.47775500  1
  Zn  Zn89  1  0.95309300  0.01767200  0.40529800  1
  Zn  Zn90  1  0.58548500  0.78576700  0.43439800  1
  Zn  Zn91  1  0.64615200  0.79230400  0.55636400  1
  Zn  Zn92  1  0.18655700  0.10799600  0.44466300  1
  Zn  Zn93  1  0.50704900  0.52454800  0.50878900  1
  Zn  Zn94  1  0.03289200  0.96685400  0.50752800  1
  Zn  Zn95  1  0.69837700  0.60996800  0.48529400  1
  Zn  Zn96  1  0.94027300  0.57791100  0.43196200  1
  Zn  Zn97  1  0.34096500  0.87764200  0.53049600  1
  Zn  Zn98  1  0.76254000  0.05525800  0.54107500  1
  Zn  Zn99  1  0.69413200  0.16843400  0.52699300  1
  Zn  Zn100  1  0.98525500  0.46006100  0.40393800  1
  Zn  Zn101  1  0.98874700  0.14782900  0.57877300  1
  Zn  Zn102  1  0.45941200  0.01775500  0.40520000  1
  Zn  Zn103  1  0.90681900  0.19884100  0.47833000  1
  Zn  Zn104  1  0.95133900  0.70696700  0.58223200  1
  Zn  Zn105  1  0.30355700  0.43678000  0.53395400  1
  Zn  Zn106  1  0.53921200  0.96693700  0.50742900  1
  Zn  Zn107  1  0.14615200  0.79230400  0.55636400  1
  Zn  Zn108  1  0.88837200  0.70043200  0.46003100  1
  Zn  Zn109  1  0.20299600  0.60905000  0.48549000  1
  Zn  Zn110  1  0.47419200  0.14997600  0.57860800  1
  Zn  Zn111  1  0.60393300  0.28417700  0.45269600  1
  Zn  Zn112  1  0.81811300  0.43463200  0.53411900  1
  Zn  Zn113  1  0.52976400  0.52935000  0.57165200  1
  Zn  Zn114  1  0.28930800  0.37555800  0.42723800  1
  Zn  Zn115  1  0.09051700  0.78339800  0.43497200  1
  Zn  Zn116  1  0.24615200  0.99230400  0.45636400  1
  Zn  Zn117  1  0.79392800  0.37464100  0.42743400  1
  Zn  Zn118  1  0.55203200  0.40669700  0.48076500  1
  Zn  Zn119  1  0.36414600  0.88458000  0.59165200  1
  Zn  Zn120  1  0.10574700  0.47661300  0.66806500  1
  Zn  Zn121  1  0.20178700  0.80121100  0.67775500  1
  Zn  Zn122  1  0.75309300  0.61767200  0.60529800  1
  Zn  Zn123  1  0.38548500  0.38576700  0.63439800  1
  Zn  Zn124  1  0.98655700  0.70799600  0.64466300  1
  Zn  Zn125  1  0.30704900  0.12454800  0.70878900  1
  Zn  Zn126  1  0.83289200  0.56685400  0.70752800  1
  Zn  Zn127  1  0.49837700  0.20996800  0.68529400  1
  Zn  Zn128  1  0.74027300  0.17791100  0.63196200  1
  Zn  Zn129  1  0.78525500  0.06006100  0.60393800  1
  Zn  Zn130  1  0.25941200  0.61775500  0.60520000  1
  Zn  Zn131  1  0.70681900  0.79884100  0.67833000  1
  Zn  Zn132  1  0.33921200  0.56693700  0.70742900  1
  Zn  Zn133  1  0.68837200  0.30043200  0.66003100  1
  Zn  Zn134  1  0.00299600  0.20905000  0.68549000  1
  Zn  Zn135  1  0.40393300  0.88417700  0.65269600  1
  Zn  Zn136  1  0.08930800  0.97555800  0.62723800  1
  Zn  Zn137  1  0.89051700  0.38339800  0.63497200  1
  Zn  Zn138  1  0.04615200  0.59230400  0.65636400  1
  Zn  Zn139  1  0.59392800  0.97464100  0.62743400  1
  Zn  Zn140  1  0.35203200  0.00669700  0.68076500  1
