# generated using pymatgen
data_CeMg
_symmetry_space_group_name_H-M   'P 1'
_cell_length_a   5.79243117
_cell_length_b   5.83029938
_cell_length_c   42.90463500
_cell_angle_alpha   89.79249727
_cell_angle_beta   87.62655045
_cell_angle_gamma   69.85152094
_symmetry_Int_Tables_number   1
_chemical_formula_structural   CeMg
_chemical_formula_sum   'Ce16 Mg16'
_cell_volume   1359.03234892
_cell_formula_units_Z   16
loop_
 _symmetry_equiv_pos_site_id
 _symmetry_equiv_pos_as_xyz
  1  'x, y, z'
loop_
 _atom_site_type_symbol
 _atom_site_label
 _atom_site_symmetry_multiplicity
 _atom_site_fract_x
 _atom_site_fract_y
 _atom_site_fract_z
 _atom_site_occupancy
  Ce  Ce0  1  0.56432700  0.53421400  0.78038900  1
  Ce  Ce1  1  0.05105700  0.38886300  0.75807300  1
  Ce  Ce2  1  0.79509700  0.45729000  0.70346600  1
  Ce  Ce3  1  0.28182600  0.31194000  0.68115000  1
  Ce  Ce4  1  0.02586600  0.38036700  0.62654300  1
  Ce  Ce5  1  0.51259600  0.23501700  0.60422700  1
  Ce  Ce6  1  0.25663500  0.30344400  0.54962000  1
  Ce  Ce7  1  0.74336500  0.15809400  0.52730300  1
  Ce  Ce8  1  0.48740400  0.22652100  0.47269700  1
  Ce  Ce9  1  0.97413400  0.08117100  0.45038000  1
  Ce  Ce10  1  0.71817400  0.14959800  0.39577300  1
  Ce  Ce11  1  0.20490300  0.00424800  0.37345700  1
  Ce  Ce12  1  0.94894300  0.07267500  0.31885000  1
  Ce  Ce13  1  0.43567300  0.92732500  0.29653400  1
  Ce  Ce14  1  0.17971200  0.99575200  0.24192700  1
  Ce  Ce15  1  0.66644200  0.85040200  0.21961100  1
  Mg  Mg16  1  0.96506700  0.91659000  0.79781200  1
  Mg  Mg17  1  0.65031700  0.00648700  0.74064900  1
  Mg  Mg18  1  0.19583700  0.83966700  0.72088900  1
  Mg  Mg19  1  0.88108600  0.92956400  0.66372600  1
  Mg  Mg20  1  0.42660600  0.76274400  0.64396600  1
  Mg  Mg21  1  0.11185600  0.85264100  0.58680300  1
  Mg  Mg22  1  0.65737500  0.68582100  0.56704300  1
  Mg  Mg23  1  0.34262500  0.77571800  0.50988000  1
  Mg  Mg24  1  0.88814400  0.60889800  0.49012000  1
  Mg  Mg25  1  0.57339400  0.69879500  0.43295700  1
  Mg  Mg26  1  0.11891400  0.53197400  0.41319700  1
  Mg  Mg27  1  0.80416300  0.62187200  0.35603400  1
  Mg  Mg28  1  0.34968300  0.45505100  0.33627400  1
  Mg  Mg29  1  0.03493300  0.54494900  0.27911100  1
  Mg  Mg30  1  0.58045200  0.37812800  0.25935100  1
  Mg  Mg31  1  0.26570200  0.46802600  0.20218800  1
