# generated using pymatgen
data_Pm2Mg
_symmetry_space_group_name_H-M   'P 1'
_cell_length_a   3.81728300
_cell_length_b   8.90561698
_cell_length_c   45.00892500
_cell_angle_alpha   90.00000000
_cell_angle_beta   90.00000000
_cell_angle_gamma   102.37556493
_symmetry_Int_Tables_number   1
_chemical_formula_structural   Pm2Mg
_chemical_formula_sum   'Pm20 Mg10'
_cell_volume   1494.53659265
_cell_formula_units_Z   10
loop_
 _symmetry_equiv_pos_site_id
 _symmetry_equiv_pos_as_xyz
  1  'x, y, z'
loop_
 _atom_site_type_symbol
 _atom_site_label
 _atom_site_symmetry_multiplicity
 _atom_site_fract_x
 _atom_site_fract_y
 _atom_site_fract_z
 _atom_site_occupancy
  Pm  Pm0  1  0.91181400  0.82362800  0.21875000  1
  Pm  Pm1  1  0.22991700  0.45983500  0.21875000  1
  Pm  Pm2  1  0.08818600  0.17637200  0.28125000  1
  Pm  Pm3  1  0.77008300  0.54016500  0.28125000  1
  Pm  Pm4  1  0.91181400  0.82362800  0.34375000  1
  Pm  Pm5  1  0.22991700  0.45983500  0.34375000  1
  Pm  Pm6  1  0.08818600  0.17637200  0.40625000  1
  Pm  Pm7  1  0.77008300  0.54016500  0.40625000  1
  Pm  Pm8  1  0.91181400  0.82362800  0.46875000  1
  Pm  Pm9  1  0.22991700  0.45983500  0.46875000  1
  Pm  Pm10  1  0.08818600  0.17637200  0.53125000  1
  Pm  Pm11  1  0.77008300  0.54016500  0.53125000  1
  Pm  Pm12  1  0.91181400  0.82362800  0.59375000  1
  Pm  Pm13  1  0.22991700  0.45983500  0.59375000  1
  Pm  Pm14  1  0.08818600  0.17637200  0.65625000  1
  Pm  Pm15  1  0.77008300  0.54016500  0.65625000  1
  Pm  Pm16  1  0.91181400  0.82362800  0.71875000  1
  Pm  Pm17  1  0.22991700  0.45983500  0.71875000  1
  Pm  Pm18  1  0.08818600  0.17637200  0.78125000  1
  Pm  Pm19  1  0.77008300  0.54016500  0.78125000  1
  Mg  Mg20  1  0.56919700  0.13839400  0.21875000  1
  Mg  Mg21  1  0.43080300  0.86160600  0.28125000  1
  Mg  Mg22  1  0.56919700  0.13839400  0.34375000  1
  Mg  Mg23  1  0.43080300  0.86160600  0.40625000  1
  Mg  Mg24  1  0.56919700  0.13839400  0.46875000  1
  Mg  Mg25  1  0.43080300  0.86160600  0.53125000  1
  Mg  Mg26  1  0.56919700  0.13839400  0.59375000  1
  Mg  Mg27  1  0.43080300  0.86160600  0.65625000  1
  Mg  Mg28  1  0.56919700  0.13839400  0.71875000  1
  Mg  Mg29  1  0.43080300  0.86160600  0.78125000  1
