# generated using pymatgen
data_Nd3Mg2
_symmetry_space_group_name_H-M   'P 1'
_cell_length_a   3.84469700
_cell_length_b   5.67409700
_cell_length_c   52.34251900
_cell_angle_alpha   90.00000000
_cell_angle_beta   90.00000000
_cell_angle_gamma   90.00000000
_symmetry_Int_Tables_number   1
_chemical_formula_structural   Nd3Mg2
_chemical_formula_sum   'Nd12 Mg8'
_cell_volume   1141.86166802
_cell_formula_units_Z   4
loop_
 _symmetry_equiv_pos_site_id
 _symmetry_equiv_pos_as_xyz
  1  'x, y, z'
loop_
 _atom_site_type_symbol
 _atom_site_label
 _atom_site_symmetry_multiplicity
 _atom_site_fract_x
 _atom_site_fract_y
 _atom_site_fract_z
 _atom_site_occupancy
  Nd  Nd0  1  0.50000000  0.75000000  0.33457400  1
  Nd  Nd1  1  1.00000000  0.75000000  0.39505300  1
  Nd  Nd2  1  1.00000000  0.25000000  0.44320300  1
  Nd  Nd3  1  0.50000000  0.25000000  0.38272500  1
  Nd  Nd4  1  0.00000000  0.75000000  0.50124100  1
  Nd  Nd5  1  0.50000000  0.75000000  0.56171900  1
  Nd  Nd6  1  0.50000000  0.25000000  0.60987000  1
  Nd  Nd7  1  1.00000000  0.25000000  0.54939200  1
  Nd  Nd8  1  0.50000000  0.75000000  0.66790800  1
  Nd  Nd9  1  1.00000000  0.75000000  0.72838600  1
  Nd  Nd10  1  1.00000000  0.25000000  0.77653700  1
  Nd  Nd11  1  0.50000000  0.25000000  0.71605800  1
  Mg  Mg12  1  0.00000000  0.75000000  0.28207900  1
  Mg  Mg13  1  0.50000000  0.25000000  0.49569800  1
  Mg  Mg14  1  0.50000000  0.75000000  0.44874600  1
  Mg  Mg15  1  1.00000000  0.25000000  0.32903200  1
  Mg  Mg16  1  1.00000000  0.75000000  0.61541300  1
  Mg  Mg17  1  0.50000000  0.25000000  0.82903200  1
  Mg  Mg18  1  0.50000000  0.75000000  0.78207900  1
  Mg  Mg19  1  0.00000000  0.25000000  0.66236500  1
