# generated using pymatgen
data_Mg2Cd7
_symmetry_space_group_name_H-M   'P 1'
_cell_length_a   5.12145700
_cell_length_b   6.29994100
_cell_length_c   43.64727300
_cell_angle_alpha   90.00000000
_cell_angle_beta   90.00000000
_cell_angle_gamma   90.00000000
_symmetry_Int_Tables_number   1
_chemical_formula_structural   Mg2Cd7
_chemical_formula_sum   'Mg8 Cd28'
_cell_volume   1408.27389185
_cell_formula_units_Z   4
loop_
 _symmetry_equiv_pos_site_id
 _symmetry_equiv_pos_as_xyz
  1  'x, y, z'
loop_
 _atom_site_type_symbol
 _atom_site_label
 _atom_site_symmetry_multiplicity
 _atom_site_fract_x
 _atom_site_fract_y
 _atom_site_fract_z
 _atom_site_occupancy
  Mg  Mg0  1  0.25000000  0.12516100  0.32291700  1
  Mg  Mg1  1  0.75000000  0.62516100  0.36458300  1
  Mg  Mg2  1  0.25000000  0.62516100  0.44791700  1
  Mg  Mg3  1  0.75000000  0.12516100  0.48958300  1
  Mg  Mg4  1  0.25000000  0.12516100  0.57291700  1
  Mg  Mg5  1  0.75000000  0.62516100  0.61458300  1
  Mg  Mg6  1  0.25000000  0.62516100  0.69791700  1
  Mg  Mg7  1  0.75000000  0.12516100  0.73958300  1
  Cd  Cd8  1  0.25000000  0.87548300  0.26039000  1
  Cd  Cd9  1  0.75000000  0.37483900  0.30211000  1
  Cd  Cd10  1  0.75000000  0.87548300  0.30211000  1
  Cd  Cd11  1  0.25000000  0.37483900  0.26039000  1
  Cd  Cd12  1  0.25000000  0.37548300  0.38539000  1
  Cd  Cd13  1  0.75000000  0.87483900  0.42711000  1
  Cd  Cd14  1  0.75000000  0.37548300  0.42711000  1
  Cd  Cd15  1  0.25000000  0.62516100  0.32297000  1
  Cd  Cd16  1  0.25000000  0.87483900  0.38539000  1
  Cd  Cd17  1  0.75000000  0.12516100  0.36453000  1
  Cd  Cd18  1  0.25000000  0.87548300  0.51039000  1
  Cd  Cd19  1  0.75000000  0.37483900  0.55211000  1
  Cd  Cd20  1  0.75000000  0.87548300  0.55211000  1
  Cd  Cd21  1  0.25000000  0.12516100  0.44797000  1
  Cd  Cd22  1  0.25000000  0.37483900  0.51039000  1
  Cd  Cd23  1  0.75000000  0.62516100  0.48953000  1
  Cd  Cd24  1  0.25000000  0.37548300  0.63539000  1
  Cd  Cd25  1  0.75000000  0.87483900  0.67711000  1
  Cd  Cd26  1  0.75000000  0.37548300  0.67711000  1
  Cd  Cd27  1  0.25000000  0.62516100  0.57297000  1
  Cd  Cd28  1  0.25000000  0.87483900  0.63539000  1
  Cd  Cd29  1  0.75000000  0.12516100  0.61453000  1
  Cd  Cd30  1  0.25000000  0.87548300  0.76039000  1
  Cd  Cd31  1  0.75000000  0.37483900  0.80211000  1
  Cd  Cd32  1  0.75000000  0.87548300  0.80211000  1
  Cd  Cd33  1  0.25000000  0.12516100  0.69797000  1
  Cd  Cd34  1  0.25000000  0.37483900  0.76039000  1
  Cd  Cd35  1  0.75000000  0.62516100  0.73953000  1
