# generated using pymatgen
data_Mg8Pd3
_symmetry_space_group_name_H-M   'P 1'
_cell_length_a   8.83883700
_cell_length_b   8.02302000
_cell_length_c   45.92794300
_cell_angle_alpha   90.00000000
_cell_angle_beta   90.00000000
_cell_angle_gamma   90.00000000
_symmetry_Int_Tables_number   1
_chemical_formula_structural   Mg8Pd3
_chemical_formula_sum   'Mg64 Pd24'
_cell_volume   3256.94177521
_cell_formula_units_Z   8
loop_
 _symmetry_equiv_pos_site_id
 _symmetry_equiv_pos_as_xyz
  1  'x, y, z'
loop_
 _atom_site_type_symbol
 _atom_site_label
 _atom_site_symmetry_multiplicity
 _atom_site_fract_x
 _atom_site_fract_y
 _atom_site_fract_z
 _atom_site_occupancy
  Mg  Mg0  1  0.05063600  0.75000000  0.33442300  1
  Mg  Mg1  1  0.05063600  0.25000000  0.30843400  1
  Mg  Mg2  1  0.55063600  0.00000000  0.32142900  1
  Mg  Mg3  1  0.55063600  0.50000000  0.32142900  1
  Mg  Mg4  1  0.76331100  0.93540600  0.45617000  1
  Mg  Mg5  1  0.55063600  0.93540600  0.38527900  1
  Mg  Mg6  1  0.33796100  0.93540600  0.45617000  1
  Mg  Mg7  1  0.83796100  0.06459400  0.35335400  1
  Mg  Mg8  1  0.05063600  0.06459400  0.42424500  1
  Mg  Mg9  1  0.26331100  0.06459400  0.35335400  1
  Mg  Mg10  1  0.83796100  0.43540600  0.35335400  1
  Mg  Mg11  1  0.05063600  0.43540600  0.42424500  1
  Mg  Mg12  1  0.26331100  0.43540600  0.35335400  1
  Mg  Mg13  1  0.76331100  0.56459400  0.45617000  1
  Mg  Mg14  1  0.55063600  0.56459400  0.38527900  1
  Mg  Mg15  1  0.33796100  0.56459400  0.45617000  1
  Mg  Mg16  1  0.24216000  0.75000000  0.39826500  1
  Mg  Mg17  1  0.55063600  0.75000000  0.50109000  1
  Mg  Mg18  1  0.85911200  0.75000000  0.39826500  1
  Mg  Mg19  1  0.35911200  0.25000000  0.41125900  1
  Mg  Mg20  1  0.55063600  0.25000000  0.47510100  1
  Mg  Mg21  1  0.74216000  0.25000000  0.41125900  1
  Mg  Mg22  1  0.05063600  0.00000000  0.48809500  1
  Mg  Mg23  1  0.05063600  0.50000000  0.48809500  1
  Mg  Mg24  1  0.26331100  0.93540600  0.62283700  1
  Mg  Mg25  1  0.05063600  0.93540600  0.55194500  1
  Mg  Mg26  1  0.83796100  0.93540600  0.62283700  1
  Mg  Mg27  1  0.33796100  0.06459400  0.52002000  1
  Mg  Mg28  1  0.55063600  0.06459400  0.59091200  1
  Mg  Mg29  1  0.76331100  0.06459400  0.52002000  1
  Mg  Mg30  1  0.33796100  0.43540600  0.52002000  1
  Mg  Mg31  1  0.55063600  0.43540600  0.59091200  1
  Mg  Mg32  1  0.76331100  0.43540600  0.52002000  1
  Mg  Mg33  1  0.26331100  0.56459400  0.62283700  1
  Mg  Mg34  1  0.05063600  0.56459400  0.55194500  1
  Mg  Mg35  1  0.83796100  0.56459400  0.62283700  1
  Mg  Mg36  1  0.74216000  0.75000000  0.56493100  1
  Mg  Mg37  1  0.05063600  0.75000000  0.66775700  1
  Mg  Mg38  1  0.35911200  0.75000000  0.56493100  1
  Mg  Mg39  1  0.85911200  0.25000000  0.57792600  1
  Mg  Mg40  1  0.05063600  0.25000000  0.64176700  1
  Mg  Mg41  1  0.24216000  0.25000000  0.57792600  1
  Mg  Mg42  1  0.55063600  0.00000000  0.65476200  1
  Mg  Mg43  1  0.55063600  0.50000000  0.65476200  1
  Mg  Mg44  1  0.76331100  0.93540600  0.78950400  1
  Mg  Mg45  1  0.55063600  0.93540600  0.71861200  1
  Mg  Mg46  1  0.33796100  0.93540600  0.78950400  1
  Mg  Mg47  1  0.83796100  0.06459400  0.68668700  1
  Mg  Mg48  1  0.05063600  0.06459400  0.75757900  1
  Mg  Mg49  1  0.26331100  0.06459400  0.68668700  1
  Mg  Mg50  1  0.83796100  0.43540600  0.68668700  1
  Mg  Mg51  1  0.05063600  0.43540600  0.75757900  1
  Mg  Mg52  1  0.26331100  0.43540600  0.68668700  1
  Mg  Mg53  1  0.76331100  0.56459400  0.78950400  1
  Mg  Mg54  1  0.55063600  0.56459400  0.71861200  1
  Mg  Mg55  1  0.33796100  0.56459400  0.78950400  1
  Mg  Mg56  1  0.24216000  0.75000000  0.73159800  1
  Mg  Mg57  1  0.55063600  0.75000000  0.83442300  1
  Mg  Mg58  1  0.85911200  0.75000000  0.73159800  1
  Mg  Mg59  1  0.35911200  0.25000000  0.74459300  1
  Mg  Mg60  1  0.55063600  0.25000000  0.80843400  1
  Mg  Mg61  1  0.74216000  0.25000000  0.74459300  1
  Mg  Mg62  1  0.05063600  0.00000000  0.82142900  1
  Mg  Mg63  1  0.05063600  0.50000000  0.82142900  1
  Pd  Pd64  1  0.73750100  0.75000000  0.34219100  1
  Pd  Pd65  1  0.05063600  0.75000000  0.44657000  1
  Pd  Pd66  1  0.36377100  0.75000000  0.34219100  1
  Pd  Pd67  1  0.86377100  0.25000000  0.46733200  1
  Pd  Pd68  1  0.55063600  0.25000000  0.36295400  1
  Pd  Pd69  1  0.23750100  0.25000000  0.46733200  1
  Pd  Pd70  1  0.55063600  0.75000000  0.43254000  1
  Pd  Pd71  1  0.05063600  0.25000000  0.37698400  1
  Pd  Pd72  1  0.23750100  0.75000000  0.50885800  1
  Pd  Pd73  1  0.55063600  0.75000000  0.61323600  1
  Pd  Pd74  1  0.86377100  0.75000000  0.50885800  1
  Pd  Pd75  1  0.36377100  0.25000000  0.63399900  1
  Pd  Pd76  1  0.05063600  0.25000000  0.52962100  1
  Pd  Pd77  1  0.73750100  0.25000000  0.63399900  1
  Pd  Pd78  1  0.05063600  0.75000000  0.59920600  1
  Pd  Pd79  1  0.55063600  0.25000000  0.54365100  1
  Pd  Pd80  1  0.73750100  0.75000000  0.67552500  1
  Pd  Pd81  1  0.05063600  0.75000000  0.77990300  1
  Pd  Pd82  1  0.36377100  0.75000000  0.67552500  1
  Pd  Pd83  1  0.86377100  0.25000000  0.80066600  1
  Pd  Pd84  1  0.55063600  0.25000000  0.69628700  1
  Pd  Pd85  1  0.23750100  0.25000000  0.80066600  1
  Pd  Pd86  1  0.55063600  0.75000000  0.76587300  1
  Pd  Pd87  1  0.05063600  0.25000000  0.71031700  1
