# generated using pymatgen
data_Mg13Ir16
_symmetry_space_group_name_H-M   'P 1'
_cell_length_a   5.24707521
_cell_length_b   9.72091511
_cell_length_c   42.67859400
_cell_angle_alpha   83.72935757
_cell_angle_beta   86.47569412
_cell_angle_gamma   74.34252486
_symmetry_Int_Tables_number   1
_chemical_formula_structural   Mg13Ir16
_chemical_formula_sum   'Mg26 Ir32'
_cell_volume   2082.39608329
_cell_formula_units_Z   2
loop_
 _symmetry_equiv_pos_site_id
 _symmetry_equiv_pos_as_xyz
  1  'x, y, z'
loop_
 _atom_site_type_symbol
 _atom_site_label
 _atom_site_symmetry_multiplicity
 _atom_site_fract_x
 _atom_site_fract_y
 _atom_site_fract_z
 _atom_site_occupancy
  Mg  Mg0  1  0.71986400  0.91133900  0.64893200  1
  Mg  Mg1  1  0.28013600  0.82466100  0.61506800  1
  Mg  Mg2  1  0.57770000  0.21217700  0.63242300  1
  Mg  Mg3  1  0.42230000  0.52382300  0.63157700  1
  Mg  Mg4  1  0.97896800  0.37377500  0.66828800  1
  Mg  Mg5  1  0.02103200  0.36222500  0.59571200  1
  Mg  Mg6  1  0.71986400  0.11133900  0.44893200  1
  Mg  Mg7  1  0.28013600  0.02466100  0.41506800  1
  Mg  Mg8  1  0.44543300  0.60047400  0.50866100  1
  Mg  Mg9  1  0.55456700  0.33552600  0.55533900  1
  Mg  Mg10  1  0.70924000  0.06061800  0.52090200  1
  Mg  Mg11  1  0.29076000  0.87538200  0.54309800  1
  Mg  Mg12  1  0.57770000  0.41217700  0.43242300  1
  Mg  Mg13  1  0.42230000  0.72382300  0.43157700  1
  Mg  Mg14  1  0.97896800  0.57377500  0.46828800  1
  Mg  Mg15  1  0.02103200  0.56222500  0.39571200  1
  Mg  Mg16  1  0.71986400  0.31133900  0.24893200  1
  Mg  Mg17  1  0.28013600  0.22466100  0.21506800  1
  Mg  Mg18  1  0.44543300  0.80047400  0.30866100  1
  Mg  Mg19  1  0.55456700  0.53552600  0.35533900  1
  Mg  Mg20  1  0.70924000  0.26061800  0.32090200  1
  Mg  Mg21  1  0.29076000  0.07538200  0.34309800  1
  Mg  Mg22  1  0.57770000  0.61217700  0.23242300  1
  Mg  Mg23  1  0.42230000  0.92382300  0.23157700  1
  Mg  Mg24  1  0.97896800  0.77377500  0.26828800  1
  Mg  Mg25  1  0.02103200  0.76222500  0.19571200  1
  Ir  Ir26  1  0.13112200  0.10009300  0.63766400  1
  Ir  Ir27  1  0.86887800  0.63590700  0.62633600  1
  Ir  Ir28  1  0.13112200  0.30009300  0.43766400  1
  Ir  Ir29  1  0.86887800  0.83590700  0.42633600  1
  Ir  Ir30  1  0.08254400  0.85798200  0.47790600  1
  Ir  Ir31  1  0.91745600  0.07801800  0.58609400  1
  Ir  Ir32  1  0.41843100  0.07801800  0.58609400  1
  Ir  Ir33  1  0.58156900  0.85798200  0.47790600  1
  Ir  Ir34  1  1.00000000  0.46800000  0.53200000  1
  Ir  Ir35  1  0.78403600  0.85132300  0.58060500  1
  Ir  Ir36  1  0.21596400  0.08467700  0.48339500  1
  Ir  Ir37  1  0.86417200  0.74628000  0.52537700  1
  Ir  Ir38  1  0.13582800  0.18972000  0.53862300  1
  Ir  Ir39  1  0.82470600  0.32728300  0.49118100  1
  Ir  Ir40  1  0.17529400  0.60871700  0.57281900  1
  Ir  Ir41  1  0.64317100  0.60871700  0.57281900  1
  Ir  Ir42  1  0.35682900  0.32728300  0.49118100  1
  Ir  Ir43  1  0.13112200  0.50009300  0.23766400  1
  Ir  Ir44  1  0.86887800  0.03590700  0.22633600  1
  Ir  Ir45  1  0.08254400  0.05798200  0.27790600  1
  Ir  Ir46  1  0.91745600  0.27801800  0.38609400  1
  Ir  Ir47  1  0.41843100  0.27801800  0.38609400  1
  Ir  Ir48  1  0.58156900  0.05798200  0.27790600  1
  Ir  Ir49  1  1.00000000  0.66800000  0.33200000  1
  Ir  Ir50  1  0.78403600  0.05132300  0.38060500  1
  Ir  Ir51  1  0.21596400  0.28467700  0.28339500  1
  Ir  Ir52  1  0.86417200  0.94628000  0.32537700  1
  Ir  Ir53  1  0.13582800  0.38972000  0.33862300  1
  Ir  Ir54  1  0.82470600  0.52728300  0.29118100  1
  Ir  Ir55  1  0.17529400  0.80871700  0.37281900  1
  Ir  Ir56  1  0.64317100  0.80871700  0.37281900  1
  Ir  Ir57  1  0.35682900  0.52728300  0.29118100  1
