# generated using pymatgen
data_Mg2Cd
_symmetry_space_group_name_H-M   'P 1'
_cell_length_a   3.17171500
_cell_length_b   5.19055600
_cell_length_c   48.34822400
_cell_angle_alpha   90.00000000
_cell_angle_beta   90.00000000
_cell_angle_gamma   90.00000000
_symmetry_Int_Tables_number   1
_chemical_formula_structural   Mg2Cd
_chemical_formula_sum   'Mg16 Cd8'
_cell_volume   795.95508682
_cell_formula_units_Z   8
loop_
 _symmetry_equiv_pos_site_id
 _symmetry_equiv_pos_as_xyz
  1  'x, y, z'
loop_
 _atom_site_type_symbol
 _atom_site_label
 _atom_site_symmetry_multiplicity
 _atom_site_fract_x
 _atom_site_fract_y
 _atom_site_fract_z
 _atom_site_occupancy
  Mg  Mg0  1  0.00000000  0.75000000  0.23139900  1
  Mg  Mg1  1  0.50000000  0.75000000  0.17495800  1
  Mg  Mg2  1  0.00000000  0.25000000  0.49170800  1
  Mg  Mg3  1  0.50000000  0.25000000  0.43526800  1
  Mg  Mg4  1  0.50000000  0.75000000  0.39806600  1
  Mg  Mg5  1  0.00000000  0.75000000  0.34162500  1
  Mg  Mg6  1  0.50000000  0.25000000  0.32504200  1
  Mg  Mg7  1  0.00000000  0.25000000  0.26860100  1
  Mg  Mg8  1  0.00000000  0.75000000  0.56473200  1
  Mg  Mg9  1  0.50000000  0.75000000  0.50829200  1
  Mg  Mg10  1  1.00000000  0.25000000  0.82504200  1
  Mg  Mg11  1  0.50000000  0.25000000  0.76860100  1
  Mg  Mg12  1  0.50000000  0.75000000  0.73139900  1
  Mg  Mg13  1  0.00000000  0.75000000  0.67495800  1
  Mg  Mg14  1  0.50000000  0.25000000  0.65837500  1
  Mg  Mg15  1  0.00000000  0.25000000  0.60193400  1
  Cd  Cd16  1  0.00000000  0.75000000  0.45393500  1
  Cd  Cd17  1  0.50000000  0.25000000  0.21273200  1
  Cd  Cd18  1  0.50000000  0.75000000  0.28726800  1
  Cd  Cd19  1  0.00000000  0.25000000  0.37939900  1
  Cd  Cd20  1  0.00000000  0.75000000  0.78726800  1
  Cd  Cd21  1  0.50000000  0.25000000  0.54606500  1
  Cd  Cd22  1  0.50000000  0.75000000  0.62060100  1
  Cd  Cd23  1  0.00000000  0.25000000  0.71273200  1
