# generated using pymatgen
data_Mg3Ag
_symmetry_space_group_name_H-M   'P 1'
_cell_length_a   7.89381708
_cell_length_b   7.89381674
_cell_length_c   41.91616600
_cell_angle_alpha   87.10015551
_cell_angle_beta   92.89984437
_cell_angle_gamma   94.89285587
_symmetry_Int_Tables_number   1
_chemical_formula_structural   Mg3Ag
_chemical_formula_sum   'Mg60 Ag20'
_cell_volume   2596.23244851
_cell_formula_units_Z   20
loop_
 _symmetry_equiv_pos_site_id
 _symmetry_equiv_pos_as_xyz
  1  'x, y, z'
loop_
 _atom_site_type_symbol
 _atom_site_label
 _atom_site_symmetry_multiplicity
 _atom_site_fract_x
 _atom_site_fract_y
 _atom_site_fract_z
 _atom_site_occupancy
  Mg  Mg0  1  0.75670400  0.07238600  0.20392100  1
  Mg  Mg1  1  0.25988600  0.56920400  0.20232900  1
  Mg  Mg2  1  0.45215900  0.88965900  0.23437500  1
  Mg  Mg3  1  0.92284100  0.73534100  0.20312500  1
  Mg  Mg4  1  0.11511400  0.05579600  0.23517100  1
  Mg  Mg5  1  0.61829600  0.55261400  0.23357900  1
  Mg  Mg6  1  0.13170400  0.69738600  0.26642100  1
  Mg  Mg7  1  0.63488600  0.19420400  0.26482900  1
  Mg  Mg8  1  0.82715900  0.51465900  0.29687500  1
  Mg  Mg9  1  0.29784100  0.36034100  0.26562500  1
  Mg  Mg10  1  0.49011400  0.68079600  0.29767100  1
  Mg  Mg11  1  0.99329600  0.17761400  0.29607900  1
  Mg  Mg12  1  0.50670400  0.32238600  0.32892100  1
  Mg  Mg13  1  0.00988600  0.81920400  0.32732900  1
  Mg  Mg14  1  0.20215900  0.13965900  0.35937500  1
  Mg  Mg15  1  0.67284100  0.98534100  0.32812500  1
  Mg  Mg16  1  0.86511400  0.30579600  0.36017100  1
  Mg  Mg17  1  0.36829600  0.80261400  0.35857900  1
  Mg  Mg18  1  0.88170400  0.94738600  0.39142100  1
  Mg  Mg19  1  0.38488600  0.44420400  0.38982900  1
  Mg  Mg20  1  0.57715900  0.76465900  0.42187500  1
  Mg  Mg21  1  0.04784100  0.61034100  0.39062500  1
  Mg  Mg22  1  0.24011400  0.93079600  0.42267100  1
  Mg  Mg23  1  0.74329600  0.42761400  0.42107900  1
  Mg  Mg24  1  0.25670400  0.57238600  0.45392100  1
  Mg  Mg25  1  0.75988600  0.06920400  0.45232900  1
  Mg  Mg26  1  0.95215900  0.38965900  0.48437500  1
  Mg  Mg27  1  0.42284100  0.23534100  0.45312500  1
  Mg  Mg28  1  0.61511400  0.55579600  0.48517100  1
  Mg  Mg29  1  0.11829600  0.05261400  0.48357900  1
  Mg  Mg30  1  0.63170400  0.19738600  0.51642100  1
  Mg  Mg31  1  0.13488600  0.69420400  0.51482900  1
  Mg  Mg32  1  0.32715900  0.01465900  0.54687500  1
  Mg  Mg33  1  0.79784100  0.86034100  0.51562500  1
  Mg  Mg34  1  0.99011400  0.18079600  0.54767100  1
  Mg  Mg35  1  0.49329600  0.67761400  0.54607900  1
  Mg  Mg36  1  0.00670400  0.82238600  0.57892100  1
  Mg  Mg37  1  0.50988600  0.31920400  0.57732900  1
  Mg  Mg38  1  0.70215900  0.63965900  0.60937500  1
  Mg  Mg39  1  0.17284100  0.48534100  0.57812500  1
  Mg  Mg40  1  0.36511400  0.80579600  0.61017100  1
  Mg  Mg41  1  0.86829600  0.30261400  0.60857900  1
  Mg  Mg42  1  0.38170400  0.44738600  0.64142100  1
  Mg  Mg43  1  0.88488600  0.94420400  0.63982900  1
  Mg  Mg44  1  0.07715900  0.26465900  0.67187500  1
  Mg  Mg45  1  0.54784100  0.11034100  0.64062500  1
  Mg  Mg46  1  0.74011400  0.43079600  0.67267100  1
  Mg  Mg47  1  0.24329600  0.92761400  0.67107900  1
  Mg  Mg48  1  0.75670400  0.07238600  0.70392100  1
  Mg  Mg49  1  0.25988600  0.56920400  0.70232900  1
  Mg  Mg50  1  0.45215900  0.88965900  0.73437500  1
  Mg  Mg51  1  0.92284100  0.73534100  0.70312500  1
  Mg  Mg52  1  0.11511400  0.05579600  0.73517100  1
  Mg  Mg53  1  0.61829600  0.55261400  0.73357900  1
  Mg  Mg54  1  0.13170400  0.69738600  0.76642100  1
  Mg  Mg55  1  0.63488600  0.19420400  0.76482900  1
  Mg  Mg56  1  0.82715900  0.51465900  0.79687500  1
  Mg  Mg57  1  0.29784100  0.36034100  0.76562500  1
  Mg  Mg58  1  0.49011400  0.68079600  0.79767100  1
  Mg  Mg59  1  0.99329600  0.17761400  0.79607900  1
  Ag  Ag60  1  0.94791700  0.38541700  0.23437500  1
  Ag  Ag61  1  0.42708300  0.23958300  0.20312500  1
  Ag  Ag62  1  0.32291700  0.01041700  0.29687500  1
  Ag  Ag63  1  0.80208300  0.86458300  0.26562500  1
  Ag  Ag64  1  0.69791700  0.63541700  0.35937500  1
  Ag  Ag65  1  0.17708300  0.48958300  0.32812500  1
  Ag  Ag66  1  0.07291700  0.26041700  0.42187500  1
  Ag  Ag67  1  0.55208300  0.11458300  0.39062500  1
  Ag  Ag68  1  0.44791700  0.88541700  0.48437500  1
  Ag  Ag69  1  0.92708300  0.73958300  0.45312500  1
  Ag  Ag70  1  0.82291700  0.51041700  0.54687500  1
  Ag  Ag71  1  0.30208300  0.36458300  0.51562500  1
  Ag  Ag72  1  0.19791700  0.13541700  0.60937500  1
  Ag  Ag73  1  0.67708300  0.98958300  0.57812500  1
  Ag  Ag74  1  0.57291700  0.76041700  0.67187500  1
  Ag  Ag75  1  0.05208300  0.61458300  0.64062500  1
  Ag  Ag76  1  0.94791700  0.38541700  0.73437500  1
  Ag  Ag77  1  0.42708300  0.23958300  0.70312500  1
  Ag  Ag78  1  0.32291700  0.01041700  0.79687500  1
  Ag  Ag79  1  0.80208300  0.86458300  0.76562500  1
