# generated using pymatgen
data_Mg7Pb6
_symmetry_space_group_name_H-M   'P 1'
_cell_length_a   3.47558800
_cell_length_b   7.87010147
_cell_length_c   43.00083100
_cell_angle_alpha   88.46194213
_cell_angle_beta   90.00000000
_cell_angle_gamma   90.00000000
_symmetry_Int_Tables_number   1
_chemical_formula_structural   Mg7Pb6
_chemical_formula_sum   'Mg14 Pb12'
_cell_volume   1175.78786035
_cell_formula_units_Z   2
loop_
 _symmetry_equiv_pos_site_id
 _symmetry_equiv_pos_as_xyz
  1  'x, y, z'
loop_
 _atom_site_type_symbol
 _atom_site_label
 _atom_site_symmetry_multiplicity
 _atom_site_fract_x
 _atom_site_fract_y
 _atom_site_fract_z
 _atom_site_occupancy
  Mg  Mg0  1  0.50000000  0.45044500  0.25604100  1
  Mg  Mg1  1  0.50000000  0.87795000  0.24395900  1
  Mg  Mg2  1  0.50000000  0.99589900  0.34695000  1
  Mg  Mg3  1  0.50000000  0.42340500  0.33486800  1
  Mg  Mg4  1  0.50000000  0.54135400  0.43785900  1
  Mg  Mg5  1  0.50000000  0.96886000  0.42577700  1
  Mg  Mg6  1  0.50000000  0.08680800  0.52876800  1
  Mg  Mg7  1  0.50000000  0.51431400  0.51668600  1
  Mg  Mg8  1  0.50000000  0.63226300  0.61967800  1
  Mg  Mg9  1  0.50000000  0.05976900  0.60759500  1
  Mg  Mg10  1  0.50000000  0.17771800  0.71058700  1
  Mg  Mg11  1  0.50000000  0.60522300  0.69850400  1
  Mg  Mg12  1  0.50000000  0.72317200  0.80149600  1
  Mg  Mg13  1  0.50000000  0.15067800  0.78941300  1
  Pb  Pb14  1  0.00000000  0.71091600  0.29945300  1
  Pb  Pb15  1  0.00000000  0.16293400  0.29145600  1
  Pb  Pb16  1  0.00000000  0.25637000  0.39036200  1
  Pb  Pb17  1  0.00000000  0.70838800  0.38236500  1
  Pb  Pb18  1  0.00000000  0.80182500  0.48127100  1
  Pb  Pb19  1  0.00000000  0.25384300  0.47327400  1
  Pb  Pb20  1  0.00000000  0.34728000  0.57218000  1
  Pb  Pb21  1  0.00000000  0.79929800  0.56418300  1
  Pb  Pb22  1  0.00000000  0.89273400  0.66308900  1
  Pb  Pb23  1  0.00000000  0.34475200  0.65509200  1
  Pb  Pb24  1  0.00000000  0.43818900  0.75399800  1
  Pb  Pb25  1  0.00000000  0.89020700  0.74600200  1
