# generated using pymatgen
data_MgAu3
_symmetry_space_group_name_H-M   'P 1'
_cell_length_a   11.29953386
_cell_length_b   19.98313900
_cell_length_c   40.71680800
_cell_angle_alpha   90.00000000
_cell_angle_beta   93.91668529
_cell_angle_gamma   90.00000000
_symmetry_Int_Tables_number   1
_chemical_formula_structural   MgAu3
_chemical_formula_sum   'Mg76 Au228'
_cell_volume   9172.38867486
_cell_formula_units_Z   76
loop_
 _symmetry_equiv_pos_site_id
 _symmetry_equiv_pos_as_xyz
  1  'x, y, z'
loop_
 _atom_site_type_symbol
 _atom_site_label
 _atom_site_symmetry_multiplicity
 _atom_site_fract_x
 _atom_site_fract_y
 _atom_site_fract_z
 _atom_site_occupancy
  Mg  Mg0  1  0.28190500  0.62386400  0.29697500  1
  Mg  Mg1  1  0.40570700  0.87613600  0.23427500  1
  Mg  Mg2  1  0.78190500  0.87613600  0.29697500  1
  Mg  Mg3  1  0.90570700  0.62386400  0.23427500  1
  Mg  Mg4  1  0.71880600  0.96274000  0.20312500  1
  Mg  Mg5  1  0.21880600  0.53726000  0.20312500  1
  Mg  Mg6  1  0.59380600  0.71024100  0.26562500  1
  Mg  Mg7  1  0.09380600  0.78975900  0.26562500  1
  Mg  Mg8  1  0.40690500  0.12386400  0.23447500  1
  Mg  Mg9  1  0.28070700  0.37613600  0.29677500  1
  Mg  Mg10  1  0.90690500  0.37613600  0.23447500  1
  Mg  Mg11  1  0.78070700  0.12386400  0.29677500  1
  Mg  Mg12  1  0.59380600  0.46274000  0.26562500  1
  Mg  Mg13  1  0.09380600  0.03726000  0.26562500  1
  Mg  Mg14  1  0.71880600  0.21024100  0.20312500  1
  Mg  Mg15  1  0.21880600  0.28975900  0.20312500  1
  Mg  Mg16  1  0.03190500  0.62386400  0.42197500  1
  Mg  Mg17  1  0.15570700  0.87613600  0.35927500  1
  Mg  Mg18  1  0.53190500  0.87613600  0.42197500  1
  Mg  Mg19  1  0.65570700  0.62386400  0.35927500  1
  Mg  Mg20  1  0.46880600  0.96274000  0.32812500  1
  Mg  Mg21  1  0.96880600  0.53726000  0.32812500  1
  Mg  Mg22  1  0.34380600  0.71024100  0.39062500  1
  Mg  Mg23  1  0.84380600  0.78975900  0.39062500  1
  Mg  Mg24  1  0.15690500  0.12386400  0.35947500  1
  Mg  Mg25  1  0.03070700  0.37613600  0.42177500  1
  Mg  Mg26  1  0.65690500  0.37613600  0.35947500  1
  Mg  Mg27  1  0.53070700  0.12386400  0.42177500  1
  Mg  Mg28  1  0.34380600  0.46274000  0.39062500  1
  Mg  Mg29  1  0.84380600  0.03726000  0.39062500  1
  Mg  Mg30  1  0.46880600  0.21024100  0.32812500  1
  Mg  Mg31  1  0.96880600  0.28975900  0.32812500  1
  Mg  Mg32  1  0.78190500  0.62386400  0.54697500  1
  Mg  Mg33  1  0.90570700  0.87613600  0.48427500  1
  Mg  Mg34  1  0.28190500  0.87613600  0.54697500  1
  Mg  Mg35  1  0.40570700  0.62386400  0.48427500  1
  Mg  Mg36  1  0.21880600  0.96274000  0.45312500  1
  Mg  Mg37  1  0.71880600  0.53726000  0.45312500  1
  Mg  Mg38  1  0.09380600  0.71024100  0.51562500  1
  Mg  Mg39  1  0.59380600  0.78975900  0.51562500  1
  Mg  Mg40  1  0.90690500  0.12386400  0.48447500  1
  Mg  Mg41  1  0.78070700  0.37613600  0.54677500  1
  Mg  Mg42  1  0.40690500  0.37613600  0.48447500  1
  Mg  Mg43  1  0.28070700  0.12386400  0.54677500  1
  Mg  Mg44  1  0.09380600  0.46274000  0.51562500  1
  Mg  Mg45  1  0.59380600  0.03726000  0.51562500  1
  Mg  Mg46  1  0.21880600  0.21024100  0.45312500  1
  Mg  Mg47  1  0.71880600  0.28975900  0.45312500  1
  Mg  Mg48  1  0.53190500  0.62386400  0.67197500  1
  Mg  Mg49  1  0.65570700  0.87613600  0.60927500  1
  Mg  Mg50  1  0.03190500  0.87613600  0.67197500  1
  Mg  Mg51  1  0.15570700  0.62386400  0.60927500  1
  Mg  Mg52  1  0.96880600  0.96274000  0.57812500  1
  Mg  Mg53  1  0.46880600  0.53726000  0.57812500  1
  Mg  Mg54  1  0.84380600  0.71024100  0.64062500  1
  Mg  Mg55  1  0.34380600  0.78975900  0.64062500  1
  Mg  Mg56  1  0.65690500  0.12386400  0.60947500  1
  Mg  Mg57  1  0.53070700  0.37613600  0.67177500  1
  Mg  Mg58  1  0.15690500  0.37613600  0.60947500  1
  Mg  Mg59  1  0.03070700  0.12386400  0.67177500  1
  Mg  Mg60  1  0.84380600  0.46274000  0.64062500  1
  Mg  Mg61  1  0.34380600  0.03726000  0.64062500  1
  Mg  Mg62  1  0.96880600  0.21024100  0.57812500  1
  Mg  Mg63  1  0.46880600  0.28975900  0.57812500  1
  Mg  Mg64  1  0.40570700  0.87613600  0.73427500  1
  Mg  Mg65  1  0.90570700  0.62386400  0.73427500  1
  Mg  Mg66  1  0.71880600  0.96274000  0.70312500  1
  Mg  Mg67  1  0.21880600  0.53726000  0.70312500  1
  Mg  Mg68  1  0.59380600  0.71024100  0.76562500  1
  Mg  Mg69  1  0.09380600  0.78975900  0.76562500  1
  Mg  Mg70  1  0.40690500  0.12386400  0.73447500  1
  Mg  Mg71  1  0.90690500  0.37613600  0.73447500  1
  Mg  Mg72  1  0.59380600  0.46274000  0.76562500  1
  Mg  Mg73  1  0.09380600  0.03726000  0.76562500  1
  Mg  Mg74  1  0.71880600  0.21024100  0.70312500  1
  Mg  Mg75  1  0.21880600  0.28975900  0.70312500  1
  Au  Au76  1  0.96852600  0.00000000  0.20326500  1
  Au  Au77  1  0.46908700  0.00000000  0.20298500  1
  Au  Au78  1  0.84408700  0.00000000  0.26548500  1
  Au  Au79  1  0.34352600  0.00000000  0.26576500  1
  Au  Au80  1  0.90589400  0.87396200  0.23430600  1
  Au  Au81  1  0.78171800  0.62603800  0.29694400  1
  Au  Au82  1  0.40589400  0.62603800  0.23430600  1
  Au  Au83  1  0.28171800  0.87396200  0.29694400  1
  Au  Au84  1  0.03181700  0.66325700  0.29662000  1
  Au  Au85  1  0.53181700  0.83674300  0.29662000  1
  Au  Au86  1  0.65579500  0.83674300  0.23463000  1
  Au  Au87  1  0.15579500  0.66325700  0.23463000  1
  Au  Au88  1  0.15619400  0.91299200  0.23443100  1
  Au  Au89  1  0.65619400  0.58700800  0.23443100  1
  Au  Au90  1  0.53141800  0.58700800  0.29681900  1
  Au  Au91  1  0.03141800  0.91299200  0.29681900  1
  Au  Au92  1  0.34380600  0.75000000  0.26562500  1
  Au  Au93  1  0.46880600  0.75000000  0.20312500  1
  Au  Au94  1  0.96880600  0.75000000  0.20312500  1
  Au  Au95  1  0.84380600  0.75000000  0.26562500  1
  Au  Au96  1  0.71880600  0.71177600  0.20312500  1
  Au  Au97  1  0.21880600  0.78822400  0.20312500  1
  Au  Au98  1  0.59380600  0.95941500  0.26562500  1
  Au  Au99  1  0.09380600  0.54058500  0.26562500  1
  Au  Au100  1  0.84352600  0.50000000  0.26576500  1
  Au  Au101  1  0.34408700  0.50000000  0.26548500  1
  Au  Au102  1  0.96908700  0.50000000  0.20298500  1
  Au  Au103  1  0.46852600  0.50000000  0.20326500  1
  Au  Au104  1  0.78089400  0.37396200  0.29680600  1
  Au  Au105  1  0.90671800  0.12603800  0.23444400  1
  Au  Au106  1  0.28089400  0.12603800  0.29680600  1
  Au  Au107  1  0.40671800  0.37396200  0.23444400  1
  Au  Au108  1  0.15681700  0.16325700  0.23412000  1
  Au  Au109  1  0.65681700  0.33674300  0.23412000  1
  Au  Au110  1  0.53079500  0.33674300  0.29713000  1
  Au  Au111  1  0.03079500  0.16325700  0.29713000  1
  Au  Au112  1  0.03119400  0.41299200  0.29693100  1
  Au  Au113  1  0.53119400  0.08700800  0.29693100  1
  Au  Au114  1  0.65641800  0.08700800  0.23431900  1
  Au  Au115  1  0.15641800  0.41299200  0.23431900  1
  Au  Au116  1  0.46880600  0.25000000  0.20312500  1
  Au  Au117  1  0.34380600  0.25000000  0.26562500  1
  Au  Au118  1  0.84380600  0.25000000  0.26562500  1
  Au  Au119  1  0.96880600  0.25000000  0.20312500  1
  Au  Au120  1  0.59380600  0.21177600  0.26562500  1
  Au  Au121  1  0.09380600  0.28822400  0.26562500  1
  Au  Au122  1  0.71880600  0.45941500  0.20312500  1
  Au  Au123  1  0.21880600  0.04058500  0.20312500  1
  Au  Au124  1  0.71852600  0.00000000  0.32826500  1
  Au  Au125  1  0.21908700  0.00000000  0.32798500  1
  Au  Au126  1  0.59408700  0.00000000  0.39048500  1
  Au  Au127  1  0.09352600  0.00000000  0.39076500  1
  Au  Au128  1  0.65589400  0.87396200  0.35930600  1
  Au  Au129  1  0.53171800  0.62603800  0.42194400  1
  Au  Au130  1  0.15589400  0.62603800  0.35930600  1
  Au  Au131  1  0.03171800  0.87396200  0.42194400  1
  Au  Au132  1  0.78181700  0.66325700  0.42162000  1
  Au  Au133  1  0.28181700  0.83674300  0.42162000  1
  Au  Au134  1  0.40579500  0.83674300  0.35963000  1
  Au  Au135  1  0.90579500  0.66325700  0.35963000  1
  Au  Au136  1  0.90619400  0.91299200  0.35943100  1
  Au  Au137  1  0.40619400  0.58700800  0.35943100  1
  Au  Au138  1  0.28141800  0.58700800  0.42181900  1
  Au  Au139  1  0.78141800  0.91299200  0.42181900  1
  Au  Au140  1  0.09380600  0.75000000  0.39062500  1
  Au  Au141  1  0.21880600  0.75000000  0.32812500  1
  Au  Au142  1  0.71880600  0.75000000  0.32812500  1
  Au  Au143  1  0.59380600  0.75000000  0.39062500  1
  Au  Au144  1  0.46880600  0.71177600  0.32812500  1
  Au  Au145  1  0.96880600  0.78822400  0.32812500  1
  Au  Au146  1  0.34380600  0.95941500  0.39062500  1
  Au  Au147  1  0.84380600  0.54058500  0.39062500  1
  Au  Au148  1  0.59352600  0.50000000  0.39076500  1
  Au  Au149  1  0.09408700  0.50000000  0.39048500  1
  Au  Au150  1  0.71908700  0.50000000  0.32798500  1
  Au  Au151  1  0.21852600  0.50000000  0.32826500  1
  Au  Au152  1  0.53089400  0.37396200  0.42180600  1
  Au  Au153  1  0.65671800  0.12603800  0.35944400  1
  Au  Au154  1  0.03089400  0.12603800  0.42180600  1
  Au  Au155  1  0.15671800  0.37396200  0.35944400  1
  Au  Au156  1  0.90681700  0.16325700  0.35912000  1
  Au  Au157  1  0.40681700  0.33674300  0.35912000  1
  Au  Au158  1  0.28079500  0.33674300  0.42213000  1
  Au  Au159  1  0.78079500  0.16325700  0.42213000  1
  Au  Au160  1  0.78119400  0.41299200  0.42193100  1
  Au  Au161  1  0.28119400  0.08700800  0.42193100  1
  Au  Au162  1  0.40641800  0.08700800  0.35931900  1
  Au  Au163  1  0.90641800  0.41299200  0.35931900  1
  Au  Au164  1  0.21880600  0.25000000  0.32812500  1
  Au  Au165  1  0.09380600  0.25000000  0.39062500  1
  Au  Au166  1  0.59380600  0.25000000  0.39062500  1
  Au  Au167  1  0.71880600  0.25000000  0.32812500  1
  Au  Au168  1  0.34380600  0.21177600  0.39062500  1
  Au  Au169  1  0.84380600  0.28822400  0.39062500  1
  Au  Au170  1  0.46880600  0.45941500  0.32812500  1
  Au  Au171  1  0.96880600  0.04058500  0.32812500  1
  Au  Au172  1  0.46852600  0.00000000  0.45326500  1
  Au  Au173  1  0.96908700  0.00000000  0.45298500  1
  Au  Au174  1  0.34408700  0.00000000  0.51548500  1
  Au  Au175  1  0.84352600  0.00000000  0.51576500  1
  Au  Au176  1  0.40589400  0.87396200  0.48430600  1
  Au  Au177  1  0.28171800  0.62603800  0.54694400  1
  Au  Au178  1  0.90589400  0.62603800  0.48430600  1
  Au  Au179  1  0.78171800  0.87396200  0.54694400  1
  Au  Au180  1  0.53181700  0.66325700  0.54662000  1
  Au  Au181  1  0.03181700  0.83674300  0.54662000  1
  Au  Au182  1  0.15579500  0.83674300  0.48463000  1
  Au  Au183  1  0.65579500  0.66325700  0.48463000  1
  Au  Au184  1  0.65619400  0.91299200  0.48443100  1
  Au  Au185  1  0.15619400  0.58700800  0.48443100  1
  Au  Au186  1  0.03141800  0.58700800  0.54681900  1
  Au  Au187  1  0.53141800  0.91299200  0.54681900  1
  Au  Au188  1  0.84380600  0.75000000  0.51562500  1
  Au  Au189  1  0.96880600  0.75000000  0.45312500  1
  Au  Au190  1  0.46880600  0.75000000  0.45312500  1
  Au  Au191  1  0.34380600  0.75000000  0.51562500  1
  Au  Au192  1  0.21880600  0.71177600  0.45312500  1
  Au  Au193  1  0.71880600  0.78822400  0.45312500  1
  Au  Au194  1  0.09380600  0.95941500  0.51562500  1
  Au  Au195  1  0.59380600  0.54058500  0.51562500  1
  Au  Au196  1  0.34352600  0.50000000  0.51576500  1
  Au  Au197  1  0.84408700  0.50000000  0.51548500  1
  Au  Au198  1  0.46908700  0.50000000  0.45298500  1
  Au  Au199  1  0.96852600  0.50000000  0.45326500  1
  Au  Au200  1  0.28089400  0.37396200  0.54680600  1
  Au  Au201  1  0.40671800  0.12603800  0.48444400  1
  Au  Au202  1  0.78089400  0.12603800  0.54680600  1
  Au  Au203  1  0.90671800  0.37396200  0.48444400  1
  Au  Au204  1  0.65681700  0.16325700  0.48412000  1
  Au  Au205  1  0.15681700  0.33674300  0.48412000  1
  Au  Au206  1  0.03079500  0.33674300  0.54713000  1
  Au  Au207  1  0.53079500  0.16325700  0.54713000  1
  Au  Au208  1  0.53119400  0.41299200  0.54693100  1
  Au  Au209  1  0.03119400  0.08700800  0.54693100  1
  Au  Au210  1  0.15641800  0.08700800  0.48431900  1
  Au  Au211  1  0.65641800  0.41299200  0.48431900  1
  Au  Au212  1  0.96880600  0.25000000  0.45312500  1
  Au  Au213  1  0.84380600  0.25000000  0.51562500  1
  Au  Au214  1  0.34380600  0.25000000  0.51562500  1
  Au  Au215  1  0.46880600  0.25000000  0.45312500  1
  Au  Au216  1  0.09380600  0.21177600  0.51562500  1
  Au  Au217  1  0.59380600  0.28822400  0.51562500  1
  Au  Au218  1  0.21880600  0.45941500  0.45312500  1
  Au  Au219  1  0.71880600  0.04058500  0.45312500  1
  Au  Au220  1  0.21852600  0.00000000  0.57826500  1
  Au  Au221  1  0.71908700  0.00000000  0.57798500  1
  Au  Au222  1  0.09408700  0.00000000  0.64048500  1
  Au  Au223  1  0.59352600  0.00000000  0.64076500  1
  Au  Au224  1  0.15589400  0.87396200  0.60930600  1
  Au  Au225  1  0.03171800  0.62603800  0.67194400  1
  Au  Au226  1  0.65589400  0.62603800  0.60930600  1
  Au  Au227  1  0.53171800  0.87396200  0.67194400  1
  Au  Au228  1  0.28181700  0.66325700  0.67162000  1
  Au  Au229  1  0.78181700  0.83674300  0.67162000  1
  Au  Au230  1  0.90579500  0.83674300  0.60963000  1
  Au  Au231  1  0.40579500  0.66325700  0.60963000  1
  Au  Au232  1  0.40619400  0.91299200  0.60943100  1
  Au  Au233  1  0.90619400  0.58700800  0.60943100  1
  Au  Au234  1  0.78141800  0.58700800  0.67181900  1
  Au  Au235  1  0.28141800  0.91299200  0.67181900  1
  Au  Au236  1  0.59380600  0.75000000  0.64062500  1
  Au  Au237  1  0.71880600  0.75000000  0.57812500  1
  Au  Au238  1  0.21880600  0.75000000  0.57812500  1
  Au  Au239  1  0.09380600  0.75000000  0.64062500  1
  Au  Au240  1  0.96880600  0.71177600  0.57812500  1
  Au  Au241  1  0.46880600  0.78822400  0.57812500  1
  Au  Au242  1  0.84380600  0.95941500  0.64062500  1
  Au  Au243  1  0.34380600  0.54058500  0.64062500  1
  Au  Au244  1  0.09352600  0.50000000  0.64076500  1
  Au  Au245  1  0.59408700  0.50000000  0.64048500  1
  Au  Au246  1  0.21908700  0.50000000  0.57798500  1
  Au  Au247  1  0.71852600  0.50000000  0.57826500  1
  Au  Au248  1  0.03089400  0.37396200  0.67180600  1
  Au  Au249  1  0.15671800  0.12603800  0.60944400  1
  Au  Au250  1  0.53089400  0.12603800  0.67180600  1
  Au  Au251  1  0.65671800  0.37396200  0.60944400  1
  Au  Au252  1  0.40681700  0.16325700  0.60912000  1
  Au  Au253  1  0.90681700  0.33674300  0.60912000  1
  Au  Au254  1  0.78079500  0.33674300  0.67213000  1
  Au  Au255  1  0.28079500  0.16325700  0.67213000  1
  Au  Au256  1  0.28119400  0.41299200  0.67193100  1
  Au  Au257  1  0.78119400  0.08700800  0.67193100  1
  Au  Au258  1  0.90641800  0.08700800  0.60931900  1
  Au  Au259  1  0.40641800  0.41299200  0.60931900  1
  Au  Au260  1  0.71880600  0.25000000  0.57812500  1
  Au  Au261  1  0.59380600  0.25000000  0.64062500  1
  Au  Au262  1  0.09380600  0.25000000  0.64062500  1
  Au  Au263  1  0.21880600  0.25000000  0.57812500  1
  Au  Au264  1  0.84380600  0.21177600  0.64062500  1
  Au  Au265  1  0.34380600  0.28822400  0.64062500  1
  Au  Au266  1  0.96880600  0.45941500  0.57812500  1
  Au  Au267  1  0.46880600  0.04058500  0.57812500  1
  Au  Au268  1  0.96852600  0.00000000  0.70326500  1
  Au  Au269  1  0.46908700  0.00000000  0.70298500  1
  Au  Au270  1  0.84408700  0.00000000  0.76548500  1
  Au  Au271  1  0.34352600  0.00000000  0.76576500  1
  Au  Au272  1  0.90589400  0.87396200  0.73430600  1
  Au  Au273  1  0.40589400  0.62603800  0.73430600  1
  Au  Au274  1  0.65579500  0.83674300  0.73463000  1
  Au  Au275  1  0.15579500  0.66325700  0.73463000  1
  Au  Au276  1  0.15619400  0.91299200  0.73443100  1
  Au  Au277  1  0.65619400  0.58700800  0.73443100  1
  Au  Au278  1  0.34380600  0.75000000  0.76562500  1
  Au  Au279  1  0.46880600  0.75000000  0.70312500  1
  Au  Au280  1  0.96880600  0.75000000  0.70312500  1
  Au  Au281  1  0.84380600  0.75000000  0.76562500  1
  Au  Au282  1  0.71880600  0.71177600  0.70312500  1
  Au  Au283  1  0.21880600  0.78822400  0.70312500  1
  Au  Au284  1  0.59380600  0.95941500  0.76562500  1
  Au  Au285  1  0.09380600  0.54058500  0.76562500  1
  Au  Au286  1  0.84352600  0.50000000  0.76576500  1
  Au  Au287  1  0.34408700  0.50000000  0.76548500  1
  Au  Au288  1  0.96908700  0.50000000  0.70298500  1
  Au  Au289  1  0.46852600  0.50000000  0.70326500  1
  Au  Au290  1  0.90671800  0.12603800  0.73444400  1
  Au  Au291  1  0.40671800  0.37396200  0.73444400  1
  Au  Au292  1  0.15681700  0.16325700  0.73412000  1
  Au  Au293  1  0.65681700  0.33674300  0.73412000  1
  Au  Au294  1  0.65641800  0.08700800  0.73431900  1
  Au  Au295  1  0.15641800  0.41299200  0.73431900  1
  Au  Au296  1  0.46880600  0.25000000  0.70312500  1
  Au  Au297  1  0.34380600  0.25000000  0.76562500  1
  Au  Au298  1  0.84380600  0.25000000  0.76562500  1
  Au  Au299  1  0.96880600  0.25000000  0.70312500  1
  Au  Au300  1  0.59380600  0.21177600  0.76562500  1
  Au  Au301  1  0.09380600  0.28822400  0.76562500  1
  Au  Au302  1  0.71880600  0.45941500  0.70312500  1
  Au  Au303  1  0.21880600  0.04058500  0.70312500  1
