# generated using pymatgen
data_Mg3Al
_symmetry_space_group_name_H-M   'P 1'
_cell_length_a   6.19134735
_cell_length_b   6.19134679
_cell_length_c   40.59937600
_cell_angle_alpha   90.00000000
_cell_angle_beta   85.62699159
_cell_angle_gamma   59.99999879
_symmetry_Int_Tables_number   1
_chemical_formula_structural   Mg3Al
_chemical_formula_sum   'Mg30 Al10'
_cell_volume   1342.54983017
_cell_formula_units_Z   10
loop_
 _symmetry_equiv_pos_site_id
 _symmetry_equiv_pos_as_xyz
  1  'x, y, z'
loop_
 _atom_site_type_symbol
 _atom_site_label
 _atom_site_symmetry_multiplicity
 _atom_site_fract_x
 _atom_site_fract_y
 _atom_site_fract_z
 _atom_site_occupancy
  Mg  Mg0  1  0.81250000  0.84375000  0.21875000  1
  Mg  Mg1  1  0.31250000  0.34375000  0.21875000  1
  Mg  Mg2  1  0.81250000  0.34375000  0.21875000  1
  Mg  Mg3  1  0.43750000  0.53125000  0.28125000  1
  Mg  Mg4  1  0.93750000  0.03125000  0.28125000  1
  Mg  Mg5  1  0.43750000  0.03125000  0.28125000  1
  Mg  Mg6  1  0.06250000  0.21875000  0.34375000  1
  Mg  Mg7  1  0.56250000  0.71875000  0.34375000  1
  Mg  Mg8  1  0.06250000  0.71875000  0.34375000  1
  Mg  Mg9  1  0.68750000  0.90625000  0.40625000  1
  Mg  Mg10  1  0.18750000  0.40625000  0.40625000  1
  Mg  Mg11  1  0.68750000  0.40625000  0.40625000  1
  Mg  Mg12  1  0.31250000  0.59375000  0.46875000  1
  Mg  Mg13  1  0.81250000  0.09375000  0.46875000  1
  Mg  Mg14  1  0.31250000  0.09375000  0.46875000  1
  Mg  Mg15  1  0.93750000  0.28125000  0.53125000  1
  Mg  Mg16  1  0.43750000  0.78125000  0.53125000  1
  Mg  Mg17  1  0.93750000  0.78125000  0.53125000  1
  Mg  Mg18  1  0.56250000  0.96875000  0.59375000  1
  Mg  Mg19  1  0.06250000  0.46875000  0.59375000  1
  Mg  Mg20  1  0.56250000  0.46875000  0.59375000  1
  Mg  Mg21  1  0.18750000  0.65625000  0.65625000  1
  Mg  Mg22  1  0.68750000  0.15625000  0.65625000  1
  Mg  Mg23  1  0.18750000  0.15625000  0.65625000  1
  Mg  Mg24  1  0.81250000  0.34375000  0.71875000  1
  Mg  Mg25  1  0.31250000  0.84375000  0.71875000  1
  Mg  Mg26  1  0.81250000  0.84375000  0.71875000  1
  Mg  Mg27  1  0.43750000  0.03125000  0.78125000  1
  Mg  Mg28  1  0.93750000  0.53125000  0.78125000  1
  Mg  Mg29  1  0.43750000  0.53125000  0.78125000  1
  Al  Al30  1  0.31250000  0.84375000  0.21875000  1
  Al  Al31  1  0.93750000  0.53125000  0.28125000  1
  Al  Al32  1  0.56250000  0.21875000  0.34375000  1
  Al  Al33  1  0.18750000  0.90625000  0.40625000  1
  Al  Al34  1  0.81250000  0.59375000  0.46875000  1
  Al  Al35  1  0.43750000  0.28125000  0.53125000  1
  Al  Al36  1  0.06250000  0.96875000  0.59375000  1
  Al  Al37  1  0.68750000  0.65625000  0.65625000  1
  Al  Al38  1  0.31250000  0.34375000  0.71875000  1
  Al  Al39  1  0.93750000  0.03125000  0.78125000  1
