# generated using pymatgen
data_MgB4
_symmetry_space_group_name_H-M   'P 1'
_cell_length_a   7.03000979
_cell_length_b   8.63140288
_cell_length_c   43.82089200
_cell_angle_alpha   93.79448005
_cell_angle_beta   87.19767736
_cell_angle_gamma   71.41702184
_symmetry_Int_Tables_number   1
_chemical_formula_structural   MgB4
_chemical_formula_sum   'Mg36 B144'
_cell_volume   2507.95072880
_cell_formula_units_Z   36
loop_
 _symmetry_equiv_pos_site_id
 _symmetry_equiv_pos_as_xyz
  1  'x, y, z'
loop_
 _atom_site_type_symbol
 _atom_site_label
 _atom_site_symmetry_multiplicity
 _atom_site_fract_x
 _atom_site_fract_y
 _atom_site_fract_z
 _atom_site_occupancy
  Mg  Mg0  1  0.33214100  0.58891300  0.20300800  1
  Mg  Mg1  1  0.31071600  0.26823000  0.22556400  1
  Mg  Mg2  1  0.93056000  0.85270900  0.18332400  1
  Mg  Mg3  1  0.71229800  0.00443400  0.24524700  1
  Mg  Mg4  1  0.97499800  0.44605600  0.27443600  1
  Mg  Mg5  1  0.95357300  0.12537300  0.29699200  1
  Mg  Mg6  1  0.57341700  0.70985200  0.25475300  1
  Mg  Mg7  1  0.35515500  0.86157700  0.31667600  1
  Mg  Mg8  1  0.61785600  0.30319900  0.34586500  1
  Mg  Mg9  1  0.59643000  0.98251600  0.36842100  1
  Mg  Mg10  1  0.21627400  0.56699500  0.32618100  1
  Mg  Mg11  1  0.99801200  0.71872000  0.38810400  1
  Mg  Mg12  1  0.26071300  0.16034200  0.41729300  1
  Mg  Mg13  1  0.23928700  0.83965800  0.43984900  1
  Mg  Mg14  1  0.85913100  0.42413800  0.39761000  1
  Mg  Mg15  1  0.64086900  0.57586200  0.45953300  1
  Mg  Mg16  1  0.90357000  0.01748400  0.48872200  1
  Mg  Mg17  1  0.88214400  0.69680100  0.51127800  1
  Mg  Mg18  1  0.50198800  0.28128000  0.46903800  1
  Mg  Mg19  1  0.28372600  0.43300500  0.53096200  1
  Mg  Mg20  1  0.54642700  0.87462700  0.56015100  1
  Mg  Mg21  1  0.52500200  0.55394400  0.58270700  1
  Mg  Mg22  1  0.14484500  0.13842300  0.54046700  1
  Mg  Mg23  1  0.92658300  0.29014800  0.60239000  1
  Mg  Mg24  1  0.18928400  0.73177000  0.63157900  1
  Mg  Mg25  1  0.16785900  0.41108700  0.65413500  1
  Mg  Mg26  1  0.78770200  0.99556600  0.61189600  1
  Mg  Mg27  1  0.56944000  0.14729100  0.67381900  1
  Mg  Mg28  1  0.83214100  0.58891300  0.70300800  1
  Mg  Mg29  1  0.81071600  0.26823000  0.72556400  1
  Mg  Mg30  1  0.43056000  0.85270900  0.68332400  1
  Mg  Mg31  1  0.21229800  0.00443400  0.74524700  1
  Mg  Mg32  1  0.47499800  0.44605600  0.77443600  1
  Mg  Mg33  1  0.45357300  0.12537300  0.79699200  1
  Mg  Mg34  1  0.07341700  0.70985200  0.75475300  1
  Mg  Mg35  1  0.85515500  0.86157700  0.81667600  1
  B  B36  1  0.71286400  0.12778800  0.19152200  1
  B  B37  1  0.92999300  0.72935500  0.23705000  1
  B  B38  1  0.96549900  0.22146500  0.24099500  1
  B  B39  1  0.67735800  0.63567800  0.18757700  1
  B  B40  1  0.75031000  0.27453200  0.21783500  1
  B  B41  1  0.89254700  0.58261100  0.21073700  1
  B  B42  1  0.14535200  0.02643200  0.23882600  1
  B  B43  1  0.49750500  0.83071100  0.18974500  1
  B  B44  1  0.10108300  0.83014500  0.23188900  1
  B  B45  1  0.40463400  0.97214200  0.22411000  1
  B  B46  1  0.69306600  0.49337800  0.21349300  1
  B  B47  1  0.08693100  0.41862100  0.18765100  1
  B  B48  1  0.54177400  0.02699800  0.19668200  1
  B  B49  1  0.23822300  0.88500100  0.20446100  1
  B  B50  1  0.94979100  0.36376500  0.21507900  1
  B  B51  1  0.55592600  0.43852200  0.24092000  1
  B  B52  1  0.35572100  0.98493100  0.26295000  1
  B  B53  1  0.57285000  0.58649800  0.30847800  1
  B  B54  1  0.60835600  0.07860700  0.31242300  1
  B  B55  1  0.32021500  0.49282100  0.25900500  1
  B  B56  1  0.39316800  0.13167500  0.28926300  1
  B  B57  1  0.53540400  0.43975300  0.28216500  1
  B  B58  1  0.78820900  0.88357400  0.31025500  1
  B  B59  1  0.14036200  0.68785400  0.26117400  1
  B  B60  1  0.74394000  0.68728800  0.30331800  1
  B  B61  1  0.04749200  0.82928500  0.29553900  1
  B  B62  1  0.33592300  0.35052000  0.28492100  1
  B  B63  1  0.72978800  0.27576400  0.25908000  1
  B  B64  1  0.18463100  0.88414100  0.26811100  1
  B  B65  1  0.88108000  0.74214400  0.27589000  1
  B  B66  1  0.59264900  0.22090800  0.28650700  1
  B  B67  1  0.19878300  0.29566500  0.31234900  1
  B  B68  1  0.99857900  0.84207400  0.33437900  1
  B  B69  1  0.21570700  0.44364100  0.37990700  1
  B  B70  1  0.25121300  0.93575000  0.38385200  1
  B  B71  1  0.96307200  0.34996400  0.33043400  1
  B  B72  1  0.03602500  0.98881800  0.36069200  1
  B  B73  1  0.17826100  0.29689600  0.35359400  1
  B  B74  1  0.43106700  0.74071700  0.38168300  1
  B  B75  1  0.78321900  0.54499700  0.33260200  1
  B  B76  1  0.38679800  0.54443100  0.37474600  1
  B  B77  1  0.69034900  0.68642800  0.36696700  1
  B  B78  1  0.97878000  0.20766300  0.35635000  1
  B  B79  1  0.37264500  0.13290700  0.33050800  1
  B  B80  1  0.82748800  0.74128400  0.33954000  1
  B  B81  1  0.52393700  0.59928600  0.34731800  1
  B  B82  1  0.23550600  0.07805100  0.35793600  1
  B  B83  1  0.84164100  0.15280700  0.38377800  1
  B  B84  1  0.64143600  0.69921700  0.40580700  1
  B  B85  1  0.85856400  0.30078300  0.45133500  1
  B  B86  1  0.89407000  0.79289300  0.45528100  1
  B  B87  1  0.60593000  0.20710700  0.40186200  1
  B  B88  1  0.67888200  0.84596100  0.43212000  1
  B  B89  1  0.82111800  0.15403900  0.42502200  1
  B  B90  1  0.07392400  0.59786000  0.45311200  1
  B  B91  1  0.42607600  0.40214000  0.40403100  1
  B  B92  1  0.02965500  0.40157400  0.44617500  1
  B  B93  1  0.33320600  0.54357100  0.43839600  1
  B  B94  1  0.62163700  0.06480600  0.42777800  1
  B  B95  1  0.01550200  0.99005000  0.40193700  1
  B  B96  1  0.47034500  0.59842600  0.41096800  1
  B  B97  1  0.16679400  0.45642900  0.41874700  1
  B  B98  1  0.87836300  0.93519400  0.42936500  1
  B  B99  1  0.48449800  0.00995000  0.45520600  1
  B  B100  1  0.28429300  0.55635900  0.47723600  1
  B  B101  1  0.50142100  0.15792600  0.52276400  1
  B  B102  1  0.53692800  0.65003600  0.52670900  1
  B  B103  1  0.24878700  0.06425000  0.47329100  1
  B  B104  1  0.32173900  0.70310400  0.50354900  1
  B  B105  1  0.46397500  0.01118200  0.49645100  1
  B  B106  1  0.71678100  0.45500300  0.52454100  1
  B  B107  1  0.06893300  0.25928300  0.47545900  1
  B  B108  1  0.67251200  0.25871600  0.51760300  1
  B  B109  1  0.97606300  0.40071400  0.50982500  1
  B  B110  1  0.26449400  0.92194900  0.49920700  1
  B  B111  1  0.65835900  0.84719300  0.47336500  1
  B  B112  1  0.11320200  0.45556900  0.48239700  1
  B  B113  1  0.80965100  0.31357200  0.49017500  1
  B  B114  1  0.52122000  0.79233700  0.50079300  1
  B  B115  1  0.12735500  0.86709300  0.52663500  1
  B  B116  1  0.92715000  0.41350200  0.54866500  1
  B  B117  1  0.14427900  0.01506900  0.59419300  1
  B  B118  1  0.17978500  0.50717900  0.59813800  1
  B  B119  1  0.89164400  0.92139300  0.54471900  1
  B  B120  1  0.96459600  0.56024700  0.57497800  1
  B  B121  1  0.10683200  0.86832500  0.56788000  1
  B  B122  1  0.35963800  0.31214600  0.59596900  1
  B  B123  1  0.71179100  0.11642600  0.54688800  1
  B  B124  1  0.31536900  0.11585900  0.58903200  1
  B  B125  1  0.61892000  0.25785600  0.58125300  1
  B  B126  1  0.90735100  0.77909200  0.57063500  1
  B  B127  1  0.30121700  0.70433500  0.54479400  1
  B  B128  1  0.75606000  0.31271200  0.55382500  1
  B  B129  1  0.45250800  0.17071500  0.56160400  1
  B  B130  1  0.16407700  0.64948000  0.57222200  1
  B  B131  1  0.77021200  0.72423600  0.59806300  1
  B  B132  1  0.57000700  0.27064500  0.62009300  1
  B  B133  1  0.78713600  0.87221200  0.66562100  1
  B  B134  1  0.82264200  0.36432200  0.66956600  1
  B  B135  1  0.53450100  0.77853500  0.61614800  1
  B  B136  1  0.60745300  0.41738900  0.64640600  1
  B  B137  1  0.74969000  0.72546800  0.63930800  1
  B  B138  1  0.00249500  0.16928900  0.66739800  1
  B  B139  1  0.35464800  0.97356800  0.61831700  1
  B  B140  1  0.95822600  0.97300200  0.66046000  1
  B  B141  1  0.26177700  0.11499900  0.65268200  1
  B  B142  1  0.55020900  0.63623500  0.64206400  1
  B  B143  1  0.94407400  0.56147800  0.61622200  1
  B  B144  1  0.39891700  0.16985500  0.62525400  1
  B  B145  1  0.09536600  0.02785800  0.63303300  1
  B  B146  1  0.80693400  0.50662200  0.64365000  1
  B  B147  1  0.41306900  0.58137900  0.66949200  1
  B  B148  1  0.21286400  0.12778800  0.69152200  1
  B  B149  1  0.42999300  0.72935500  0.73705000  1
  B  B150  1  0.46549900  0.22146500  0.74099500  1
  B  B151  1  0.17735800  0.63567800  0.68757700  1
  B  B152  1  0.25031000  0.27453200  0.71783500  1
  B  B153  1  0.39254700  0.58261100  0.71073700  1
  B  B154  1  0.64535200  0.02643200  0.73882600  1
  B  B155  1  0.99750500  0.83071100  0.68974500  1
  B  B156  1  0.60108300  0.83014500  0.73188900  1
  B  B157  1  0.90463400  0.97214200  0.72411000  1
  B  B158  1  0.19306600  0.49337800  0.71349300  1
  B  B159  1  0.58693100  0.41862100  0.68765100  1
  B  B160  1  0.04177400  0.02699800  0.69668200  1
  B  B161  1  0.73822300  0.88500100  0.70446100  1
  B  B162  1  0.44979100  0.36376500  0.71507900  1
  B  B163  1  0.05592600  0.43852200  0.74092000  1
  B  B164  1  0.85572100  0.98493100  0.76295000  1
  B  B165  1  0.07285000  0.58649800  0.80847800  1
  B  B166  1  0.10835600  0.07860700  0.81242300  1
  B  B167  1  0.82021500  0.49282100  0.75900500  1
  B  B168  1  0.89316800  0.13167500  0.78926300  1
  B  B169  1  0.03540400  0.43975300  0.78216500  1
  B  B170  1  0.28820900  0.88357400  0.81025500  1
  B  B171  1  0.64036200  0.68785400  0.76117400  1
  B  B172  1  0.24394000  0.68728800  0.80331800  1
  B  B173  1  0.54749200  0.82928500  0.79553900  1
  B  B174  1  0.83592300  0.35052000  0.78492100  1
  B  B175  1  0.22978800  0.27576400  0.75908000  1
  B  B176  1  0.68463100  0.88414100  0.76811100  1
  B  B177  1  0.38108000  0.74214400  0.77589000  1
  B  B178  1  0.09264900  0.22090800  0.78650700  1
  B  B179  1  0.69878300  0.29566500  0.81234900  1
