# generated using pymatgen
data_Mg26Ir43
_symmetry_space_group_name_H-M   'P 1'
_cell_length_a   5.24707521
_cell_length_b   9.72091511
_cell_length_c   42.67859400
_cell_angle_alpha   83.72935757
_cell_angle_beta   86.47569412
_cell_angle_gamma   74.34252486
_symmetry_Int_Tables_number   1
_chemical_formula_structural   Mg26Ir43
_chemical_formula_sum   'Mg26 Ir43'
_cell_volume   2082.39608329
_cell_formula_units_Z   1
loop_
 _symmetry_equiv_pos_site_id
 _symmetry_equiv_pos_as_xyz
  1  'x, y, z'
loop_
 _atom_site_type_symbol
 _atom_site_label
 _atom_site_symmetry_multiplicity
 _atom_site_fract_x
 _atom_site_fract_y
 _atom_site_fract_z
 _atom_site_occupancy
  Mg  Mg0  1  0.71986400  0.91933900  0.64093200  1
  Mg  Mg1  1  0.28013600  0.83266100  0.60706800  1
  Mg  Mg2  1  0.44543300  0.40847400  0.70066100  1
  Mg  Mg3  1  0.55456700  0.14352600  0.74733900  1
  Mg  Mg4  1  0.70924000  0.86861800  0.71290200  1
  Mg  Mg5  1  0.29076000  0.68338200  0.73509800  1
  Mg  Mg6  1  0.57770000  0.22017700  0.62442300  1
  Mg  Mg7  1  0.42230000  0.53182300  0.62357700  1
  Mg  Mg8  1  0.97896800  0.38177500  0.66028800  1
  Mg  Mg9  1  0.02103200  0.17022500  0.78771200  1
  Mg  Mg10  1  0.71986400  0.11933900  0.44093200  1
  Mg  Mg11  1  0.28013600  0.03266100  0.40706800  1
  Mg  Mg12  1  0.44543300  0.60847400  0.50066100  1
  Mg  Mg13  1  0.55456700  0.34352600  0.54733900  1
  Mg  Mg14  1  0.70924000  0.06861800  0.51290200  1
  Mg  Mg15  1  0.29076000  0.88338200  0.53509800  1
  Mg  Mg16  1  0.57770000  0.42017700  0.42442300  1
  Mg  Mg17  1  0.42230000  0.73182300  0.42357700  1
  Mg  Mg18  1  0.97896800  0.58177500  0.46028800  1
  Mg  Mg19  1  0.02103200  0.37022500  0.58771200  1
  Mg  Mg20  1  0.44543300  0.80847400  0.30066100  1
  Mg  Mg21  1  0.55456700  0.54352600  0.34733900  1
  Mg  Mg22  1  0.70924000  0.26861800  0.31290200  1
  Mg  Mg23  1  0.29076000  0.08338200  0.33509800  1
  Mg  Mg24  1  0.97896800  0.78177500  0.26028800  1
  Mg  Mg25  1  0.02103200  0.57022500  0.38771200  1
  Ir  Ir26  1  0.13112200  0.10809300  0.62966400  1
  Ir  Ir27  1  0.86887800  0.64390700  0.61833600  1
  Ir  Ir28  1  0.08254400  0.66598200  0.66990600  1
  Ir  Ir29  1  0.91745600  0.88601800  0.77809400  1
  Ir  Ir30  1  0.41843100  0.88601800  0.77809400  1
  Ir  Ir31  1  0.58156900  0.66598200  0.66990600  1
  Ir  Ir32  1  0.00000000  0.27600000  0.72400000  1
  Ir  Ir33  1  0.78403600  0.65932300  0.77260500  1
  Ir  Ir34  1  0.21596400  0.89267700  0.67539500  1
  Ir  Ir35  1  0.86417200  0.55428000  0.71737700  1
  Ir  Ir36  1  0.13582800  0.99772000  0.73062300  1
  Ir  Ir37  1  0.82470600  0.13528300  0.68318100  1
  Ir  Ir38  1  0.17529400  0.41671700  0.76481900  1
  Ir  Ir39  1  0.64317100  0.41671700  0.76481900  1
  Ir  Ir40  1  0.35682900  0.13528300  0.68318100  1
  Ir  Ir41  1  0.13112200  0.30809300  0.42966400  1
  Ir  Ir42  1  0.86887800  0.84390700  0.41833600  1
  Ir  Ir43  1  0.08254400  0.86598200  0.46990600  1
  Ir  Ir44  1  0.91745600  0.08601800  0.57809400  1
  Ir  Ir45  1  0.41843100  0.08601800  0.57809400  1
  Ir  Ir46  1  0.58156900  0.86598200  0.46990600  1
  Ir  Ir47  1  1.00000000  0.47600000  0.52400000  1
  Ir  Ir48  1  0.78403600  0.85932300  0.57260500  1
  Ir  Ir49  1  0.21596400  0.09267700  0.47539500  1
  Ir  Ir50  1  0.86417200  0.75428000  0.51737700  1
  Ir  Ir51  1  0.13582800  0.19772000  0.53062300  1
  Ir  Ir52  1  0.82470600  0.33528300  0.48318100  1
  Ir  Ir53  1  0.17529400  0.61671700  0.56481900  1
  Ir  Ir54  1  0.64317100  0.61671700  0.56481900  1
  Ir  Ir55  1  0.35682900  0.33528300  0.48318100  1
  Ir  Ir56  1  0.08254400  0.06598200  0.26990600  1
  Ir  Ir57  1  0.91745600  0.28601800  0.37809400  1
  Ir  Ir58  1  0.41843100  0.28601800  0.37809400  1
  Ir  Ir59  1  0.58156900  0.06598200  0.26990600  1
  Ir  Ir60  1  0.00000000  0.67600000  0.32400000  1
  Ir  Ir61  1  0.78403600  0.05932300  0.37260500  1
  Ir  Ir62  1  0.21596400  0.29267700  0.27539500  1
  Ir  Ir63  1  0.86417200  0.95428000  0.31737700  1
  Ir  Ir64  1  0.13582800  0.39772000  0.33062300  1
  Ir  Ir65  1  0.82470600  0.53528300  0.28318100  1
  Ir  Ir66  1  0.17529400  0.81671700  0.36481900  1
  Ir  Ir67  1  0.64317100  0.81671700  0.36481900  1
  Ir  Ir68  1  0.35682900  0.53528300  0.28318100  1
