# generated using pymatgen
data_MgAu3
_symmetry_space_group_name_H-M   'P 1'
_cell_length_a   5.98733200
_cell_length_b   9.58286600
_cell_length_c   59.94941800
_cell_angle_alpha   90.00000000
_cell_angle_beta   90.00000000
_cell_angle_gamma   90.00000000
_symmetry_Int_Tables_number   1
_chemical_formula_structural   MgAu3
_chemical_formula_sum   'Mg30 Au90'
_cell_volume   3439.64583248
_cell_formula_units_Z   30
loop_
 _symmetry_equiv_pos_site_id
 _symmetry_equiv_pos_as_xyz
  1  'x, y, z'
loop_
 _atom_site_type_symbol
 _atom_site_label
 _atom_site_symmetry_multiplicity
 _atom_site_fract_x
 _atom_site_fract_y
 _atom_site_fract_z
 _atom_site_occupancy
  Mg  Mg0  1  0.50000000  0.49920200  0.22954500  1
  Mg  Mg1  1  0.00000000  0.50079800  0.47878800  1
  Mg  Mg2  1  0.00000000  0.99920200  0.47878800  1
  Mg  Mg3  1  0.50000000  0.00079800  0.22954500  1
  Mg  Mg4  1  0.50000000  0.25000000  0.44992000  1
  Mg  Mg5  1  0.00000000  0.75000000  0.25841300  1
  Mg  Mg6  1  1.00000000  0.49920200  0.39621200  1
  Mg  Mg7  1  0.50000000  0.50079800  0.31212100  1
  Mg  Mg8  1  0.50000000  0.99920200  0.31212100  1
  Mg  Mg9  1  0.00000000  0.00079800  0.39621200  1
  Mg  Mg10  1  0.00000000  0.25000000  0.28325300  1
  Mg  Mg11  1  0.50000000  0.75000000  0.42508000  1
  Mg  Mg12  1  0.50000000  0.25000000  0.36742000  1
  Mg  Mg13  1  0.00000000  0.75000000  0.34091400  1
  Mg  Mg14  1  0.50000000  0.49920200  0.56287900  1
  Mg  Mg15  1  0.00000000  0.50079800  0.81212100  1
  Mg  Mg16  1  0.00000000  0.99920200  0.81212100  1
  Mg  Mg17  1  0.50000000  0.00079800  0.56287900  1
  Mg  Mg18  1  0.50000000  0.25000000  0.78325300  1
  Mg  Mg19  1  0.00000000  0.75000000  0.59174700  1
  Mg  Mg20  1  0.00000000  0.25000000  0.53408600  1
  Mg  Mg21  1  0.50000000  0.75000000  0.50758000  1
  Mg  Mg22  1  0.00000000  0.49920200  0.72954500  1
  Mg  Mg23  1  0.50000000  0.50079800  0.64545500  1
  Mg  Mg24  1  0.50000000  0.99920200  0.64545500  1
  Mg  Mg25  1  0.00000000  0.00079800  0.72954500  1
  Mg  Mg26  1  0.00000000  0.25000000  0.61658700  1
  Mg  Mg27  1  0.50000000  0.75000000  0.75841300  1
  Mg  Mg28  1  0.50000000  0.25000000  0.70075300  1
  Mg  Mg29  1  0.00000000  0.75000000  0.67424700  1
  Au  Au30  1  0.74887800  0.00000000  0.43750000  1
  Au  Au31  1  0.25112200  0.50000000  0.43750000  1
  Au  Au32  1  0.25112200  0.00000000  0.43750000  1
  Au  Au33  1  0.74887800  0.50000000  0.43750000  1
  Au  Au34  1  0.50000000  0.00054900  0.47951300  1
  Au  Au35  1  0.00000000  0.99945100  0.22882100  1
  Au  Au36  1  0.00000000  0.50054900  0.22882100  1
  Au  Au37  1  0.50000000  0.49945100  0.47951300  1
  Au  Au38  1  0.25204300  0.75000000  0.21641400  1
  Au  Au39  1  0.75204300  0.25000000  0.49191900  1
  Au  Au40  1  0.24795700  0.25000000  0.49191900  1
  Au  Au41  1  0.74795700  0.75000000  0.21641400  1
  Au  Au42  1  0.74955100  0.75000000  0.46650300  1
  Au  Au43  1  0.24955100  0.25000000  0.24183100  1
  Au  Au44  1  0.75044900  0.25000000  0.24183100  1
  Au  Au45  1  0.25044900  0.75000000  0.46650300  1
  Au  Au46  1  0.00000000  0.25000000  0.45102800  1
  Au  Au47  1  0.50000000  0.75000000  0.25730500  1
  Au  Au48  1  0.24887800  0.00000000  0.27083300  1
  Au  Au49  1  0.75112200  0.50000000  0.27083300  1
  Au  Au50  1  0.75112200  0.00000000  0.27083300  1
  Au  Au51  1  0.24887800  0.50000000  0.27083300  1
  Au  Au52  1  0.00000000  0.00054900  0.31284600  1
  Au  Au53  1  0.50000000  0.99945100  0.39548700  1
  Au  Au54  1  0.50000000  0.50054900  0.39548700  1
  Au  Au55  1  0.00000000  0.49945100  0.31284600  1
  Au  Au56  1  0.75204300  0.75000000  0.38308100  1
  Au  Au57  1  0.25204300  0.25000000  0.32525200  1
  Au  Au58  1  0.74795700  0.25000000  0.32525200  1
  Au  Au59  1  0.24795700  0.75000000  0.38308100  1
  Au  Au60  1  0.24955100  0.75000000  0.29983600  1
  Au  Au61  1  0.74955100  0.25000000  0.40849700  1
  Au  Au62  1  0.25044900  0.25000000  0.40849700  1
  Au  Au63  1  0.75044900  0.75000000  0.29983600  1
  Au  Au64  1  0.25000000  0.50000000  0.35416700  1
  Au  Au65  1  0.75000000  0.50000000  0.35416700  1
  Au  Au66  1  0.25000000  0.00000000  0.35416700  1
  Au  Au67  1  0.75000000  0.00000000  0.35416700  1
  Au  Au68  1  0.00000000  0.25000000  0.36690800  1
  Au  Au69  1  0.50000000  0.75000000  0.34142500  1
  Au  Au70  1  0.50000000  0.25000000  0.28436200  1
  Au  Au71  1  0.00000000  0.75000000  0.42397200  1
  Au  Au72  1  0.74887800  0.00000000  0.77083300  1
  Au  Au73  1  0.25112200  0.50000000  0.77083300  1
  Au  Au74  1  0.25112200  0.00000000  0.77083300  1
  Au  Au75  1  0.74887800  0.50000000  0.77083300  1
  Au  Au76  1  0.50000000  0.00054900  0.81284600  1
  Au  Au77  1  0.00000000  0.99945100  0.56215400  1
  Au  Au78  1  0.00000000  0.50054900  0.56215400  1
  Au  Au79  1  0.50000000  0.49945100  0.81284600  1
  Au  Au80  1  0.25204300  0.75000000  0.54974800  1
  Au  Au81  1  0.75204300  0.25000000  0.82525200  1
  Au  Au82  1  0.24795700  0.25000000  0.82525200  1
  Au  Au83  1  0.74795700  0.75000000  0.54974800  1
  Au  Au84  1  0.74955100  0.75000000  0.79983600  1
  Au  Au85  1  0.24955100  0.25000000  0.57516400  1
  Au  Au86  1  0.75044900  0.25000000  0.57516400  1
  Au  Au87  1  0.25044900  0.75000000  0.79983600  1
  Au  Au88  1  0.75000000  0.50000000  0.52083300  1
  Au  Au89  1  0.25000000  0.50000000  0.52083300  1
  Au  Au90  1  0.75000000  0.00000000  0.52083300  1
  Au  Au91  1  0.25000000  0.00000000  0.52083300  1
  Au  Au92  1  0.50000000  0.25000000  0.53357500  1
  Au  Au93  1  0.00000000  0.75000000  0.50809200  1
  Au  Au94  1  0.00000000  0.25000000  0.78436200  1
  Au  Au95  1  0.50000000  0.75000000  0.59063800  1
  Au  Au96  1  0.24887800  0.00000000  0.60416700  1
  Au  Au97  1  0.75112200  0.50000000  0.60416700  1
  Au  Au98  1  0.75112200  0.00000000  0.60416700  1
  Au  Au99  1  0.24887800  0.50000000  0.60416700  1
  Au  Au100  1  0.00000000  0.00054900  0.64617900  1
  Au  Au101  1  0.50000000  0.99945100  0.72882100  1
  Au  Au102  1  0.50000000  0.50054900  0.72882100  1
  Au  Au103  1  0.00000000  0.49945100  0.64617900  1
  Au  Au104  1  0.75204300  0.75000000  0.71641400  1
  Au  Au105  1  0.25204300  0.25000000  0.65858600  1
  Au  Au106  1  0.74795700  0.25000000  0.65858600  1
  Au  Au107  1  0.24795700  0.75000000  0.71641400  1
  Au  Au108  1  0.24955100  0.75000000  0.63316900  1
  Au  Au109  1  0.74955100  0.25000000  0.74183100  1
  Au  Au110  1  0.25044900  0.25000000  0.74183100  1
  Au  Au111  1  0.75044900  0.75000000  0.63316900  1
  Au  Au112  1  0.25000000  0.50000000  0.68750000  1
  Au  Au113  1  0.75000000  0.50000000  0.68750000  1
  Au  Au114  1  0.25000000  0.00000000  0.68750000  1
  Au  Au115  1  0.75000000  0.00000000  0.68750000  1
  Au  Au116  1  0.00000000  0.25000000  0.70024100  1
  Au  Au117  1  0.50000000  0.75000000  0.67475900  1
  Au  Au118  1  0.50000000  0.25000000  0.61769500  1
  Au  Au119  1  0.00000000  0.75000000  0.75730500  1
