# generated using pymatgen
data_Mg11Pd24
_symmetry_space_group_name_H-M   'P 1'
_cell_length_a   4.19057600
_cell_length_b   9.87844226
_cell_length_c   45.88469700
_cell_angle_alpha   91.77467978
_cell_angle_beta   90.00000000
_cell_angle_gamma   90.00000000
_symmetry_Int_Tables_number   1
_chemical_formula_structural   Mg11Pd24
_chemical_formula_sum   'Mg22 Pd48'
_cell_volume   1898.54848723
_cell_formula_units_Z   2
loop_
 _symmetry_equiv_pos_site_id
 _symmetry_equiv_pos_as_xyz
  1  'x, y, z'
loop_
 _atom_site_type_symbol
 _atom_site_label
 _atom_site_symmetry_multiplicity
 _atom_site_fract_x
 _atom_site_fract_y
 _atom_site_fract_z
 _atom_site_occupancy
  Mg  Mg0  1  0.25000000  0.64606900  0.28164500  1
  Mg  Mg1  1  0.75000000  0.98248700  0.23502200  1
  Mg  Mg2  1  0.25000000  0.28365200  0.30130000  1
  Mg  Mg3  1  0.75000000  0.04490400  0.31536700  1
  Mg  Mg4  1  0.25000000  0.34606900  0.38164500  1
  Mg  Mg5  1  0.75000000  0.68248700  0.33502200  1
  Mg  Mg6  1  0.25000000  0.98365200  0.40130000  1
  Mg  Mg7  1  0.75000000  0.74490400  0.41536700  1
  Mg  Mg8  1  0.25000000  0.04606900  0.48164500  1
  Mg  Mg9  1  0.75000000  0.38248700  0.43502200  1
  Mg  Mg10  1  0.25000000  0.68365200  0.50130000  1
  Mg  Mg11  1  0.75000000  0.44490400  0.51536700  1
  Mg  Mg12  1  0.25000000  0.74606900  0.58164500  1
  Mg  Mg13  1  0.75000000  0.08248700  0.53502200  1
  Mg  Mg14  1  0.25000000  0.38365200  0.60130000  1
  Mg  Mg15  1  0.75000000  0.14490400  0.61536700  1
  Mg  Mg16  1  0.25000000  0.44606900  0.68164500  1
  Mg  Mg17  1  0.75000000  0.78248700  0.63502200  1
  Mg  Mg18  1  0.25000000  0.08365200  0.70130000  1
  Mg  Mg19  1  0.75000000  0.84490400  0.71536700  1
  Mg  Mg20  1  0.25000000  0.14606900  0.78164500  1
  Mg  Mg21  1  0.75000000  0.48248700  0.73502200  1
  Pd  Pd22  1  0.25000000  0.81111300  0.23518100  1
  Pd  Pd23  1  0.75000000  0.81744300  0.28148500  1
  Pd  Pd24  1  0.25000000  0.41278200  0.24970500  1
  Pd  Pd25  1  0.75000000  0.21577300  0.26696100  1
  Pd  Pd26  1  0.25000000  0.01957900  0.27793700  1
  Pd  Pd27  1  0.75000000  0.60897600  0.23872900  1
  Pd  Pd28  1  0.25000000  0.14982100  0.22511500  1
  Pd  Pd29  1  0.75000000  0.47873500  0.29155200  1
  Pd  Pd30  1  0.25000000  0.51111300  0.33518100  1
  Pd  Pd31  1  0.75000000  0.51744300  0.38148500  1
  Pd  Pd32  1  0.25000000  0.11278200  0.34970500  1
  Pd  Pd33  1  0.75000000  0.91577300  0.36696100  1
  Pd  Pd34  1  0.25000000  0.71957900  0.37793700  1
  Pd  Pd35  1  0.75000000  0.30897600  0.33872900  1
  Pd  Pd36  1  0.25000000  0.84982100  0.32511500  1
  Pd  Pd37  1  0.75000000  0.17873500  0.39155200  1
  Pd  Pd38  1  0.25000000  0.21111300  0.43518100  1
  Pd  Pd39  1  0.75000000  0.21744300  0.48148500  1
  Pd  Pd40  1  0.25000000  0.81278200  0.44970500  1
  Pd  Pd41  1  0.75000000  0.61577300  0.46696100  1
  Pd  Pd42  1  0.25000000  0.41957900  0.47793700  1
  Pd  Pd43  1  0.75000000  0.00897600  0.43872900  1
  Pd  Pd44  1  0.25000000  0.54982100  0.42511500  1
  Pd  Pd45  1  0.75000000  0.87873500  0.49155200  1
  Pd  Pd46  1  0.25000000  0.91111300  0.53518100  1
  Pd  Pd47  1  0.75000000  0.91744300  0.58148500  1
  Pd  Pd48  1  0.25000000  0.51278200  0.54970500  1
  Pd  Pd49  1  0.75000000  0.31577300  0.56696100  1
  Pd  Pd50  1  0.25000000  0.11957900  0.57793700  1
  Pd  Pd51  1  0.75000000  0.70897600  0.53872900  1
  Pd  Pd52  1  0.25000000  0.24982100  0.52511500  1
  Pd  Pd53  1  0.75000000  0.57873500  0.59155200  1
  Pd  Pd54  1  0.25000000  0.61111300  0.63518100  1
  Pd  Pd55  1  0.75000000  0.61744300  0.68148500  1
  Pd  Pd56  1  0.25000000  0.21278200  0.64970500  1
  Pd  Pd57  1  0.75000000  0.01577300  0.66696100  1
  Pd  Pd58  1  0.25000000  0.81957900  0.67793700  1
  Pd  Pd59  1  0.75000000  0.40897600  0.63872900  1
  Pd  Pd60  1  0.25000000  0.94982100  0.62511500  1
  Pd  Pd61  1  0.75000000  0.27873500  0.69155200  1
  Pd  Pd62  1  0.25000000  0.31111300  0.73518100  1
  Pd  Pd63  1  0.75000000  0.31744300  0.78148500  1
  Pd  Pd64  1  0.25000000  0.91278200  0.74970500  1
  Pd  Pd65  1  0.75000000  0.71577300  0.76696100  1
  Pd  Pd66  1  0.25000000  0.51957900  0.77793700  1
  Pd  Pd67  1  0.75000000  0.10897600  0.73872900  1
  Pd  Pd68  1  0.25000000  0.64982100  0.72511500  1
  Pd  Pd69  1  0.75000000  0.97873500  0.79155200  1
