# generated using pymatgen
data_Er15Mg8
_symmetry_space_group_name_H-M   'P 1'
_cell_length_a   5.42669900
_cell_length_b   8.70370642
_cell_length_c   46.42048700
_cell_angle_alpha   91.54237289
_cell_angle_beta   90.00000000
_cell_angle_gamma   90.00000000
_symmetry_Int_Tables_number   1
_chemical_formula_structural   Er15Mg8
_chemical_formula_sum   'Er30 Mg16'
_cell_volume   2191.75639656
_cell_formula_units_Z   2
loop_
 _symmetry_equiv_pos_site_id
 _symmetry_equiv_pos_as_xyz
  1  'x, y, z'
loop_
 _atom_site_type_symbol
 _atom_site_label
 _atom_site_symmetry_multiplicity
 _atom_site_fract_x
 _atom_site_fract_y
 _atom_site_fract_z
 _atom_site_occupancy
  Er  Er0  1  0.25000000  0.33290200  0.73540500  1
  Er  Er1  1  0.75000000  0.38316100  0.77741500  1
  Er  Er2  1  0.25000000  0.71544000  0.71070700  1
  Er  Er3  1  0.25000000  0.40982500  0.65848200  1
  Er  Er4  1  0.75000000  0.07754700  0.72519100  1
  Er  Er5  1  0.75000000  0.46008500  0.70049200  1
  Er  Er6  1  0.25000000  0.79236300  0.63378400  1
  Er  Er7  1  0.25000000  0.48674800  0.58155900  1
  Er  Er8  1  0.75000000  0.15447000  0.64826800  1
  Er  Er9  1  0.75000000  0.53700800  0.62356900  1
  Er  Er10  1  0.25000000  0.86928600  0.55686000  1
  Er  Er11  1  0.25000000  0.56367100  0.50463600  1
  Er  Er12  1  0.75000000  0.23139300  0.57134500  1
  Er  Er13  1  0.75000000  0.61393100  0.54664600  1
  Er  Er14  1  0.25000000  0.94620900  0.47993700  1
  Er  Er15  1  0.25000000  0.64059400  0.42771300  1
  Er  Er16  1  0.75000000  0.30831600  0.49442200  1
  Er  Er17  1  0.75000000  0.69085400  0.46972300  1
  Er  Er18  1  0.25000000  0.02313200  0.40301400  1
  Er  Er19  1  0.25000000  0.71751800  0.35079000  1
  Er  Er20  1  0.75000000  0.38523900  0.41749900  1
  Er  Er21  1  0.75000000  0.76777700  0.39280000  1
  Er  Er22  1  0.25000000  0.10005600  0.32609100  1
  Er  Er23  1  0.25000000  0.79444100  0.27386700  1
  Er  Er24  1  0.75000000  0.46216200  0.34057500  1
  Er  Er25  1  0.75000000  0.84470000  0.31587700  1
  Er  Er26  1  0.25000000  0.17697900  0.24916800  1
  Er  Er27  1  0.25000000  0.87136400  0.19694400  1
  Er  Er28  1  0.75000000  0.53908500  0.26365200  1
  Er  Er29  1  0.75000000  0.92162300  0.23895400  1
  Mg  Mg30  1  0.25000000  0.98403700  0.76145000  1
  Mg  Mg31  1  0.75000000  0.73202600  0.75137000  1
  Mg  Mg32  1  0.25000000  0.06096000  0.68452700  1
  Mg  Mg33  1  0.75000000  0.80894900  0.67444700  1
  Mg  Mg34  1  0.25000000  0.13788300  0.60760400  1
  Mg  Mg35  1  0.75000000  0.88587300  0.59752400  1
  Mg  Mg36  1  0.25000000  0.21480600  0.53068100  1
  Mg  Mg37  1  0.75000000  0.96279600  0.52060100  1
  Mg  Mg38  1  0.25000000  0.29173000  0.45375800  1
  Mg  Mg39  1  0.75000000  0.03971900  0.44367800  1
  Mg  Mg40  1  0.25000000  0.36865300  0.37683500  1
  Mg  Mg41  1  0.75000000  0.11664200  0.36675500  1
  Mg  Mg42  1  0.25000000  0.44557600  0.29991200  1
  Mg  Mg43  1  0.75000000  0.19356500  0.28983200  1
  Mg  Mg44  1  0.25000000  0.52249900  0.22298900  1
  Mg  Mg45  1  0.75000000  0.27048800  0.21290900  1
