# generated using pymatgen
data_Li13Mg23
_symmetry_space_group_name_H-M   'P 1'
_cell_length_a   9.50399500
_cell_length_b   10.03695549
_cell_length_c   44.10682900
_cell_angle_alpha   91.80179112
_cell_angle_beta   90.00000000
_cell_angle_gamma   61.74151319
_symmetry_Int_Tables_number   1
_chemical_formula_structural   Li13Mg23
_chemical_formula_sum   'Li39 Mg69'
_cell_volume   3703.60477246
_cell_formula_units_Z   3
loop_
 _symmetry_equiv_pos_site_id
 _symmetry_equiv_pos_as_xyz
  1  'x, y, z'
loop_
 _atom_site_type_symbol
 _atom_site_label
 _atom_site_symmetry_multiplicity
 _atom_site_fract_x
 _atom_site_fract_y
 _atom_site_fract_z
 _atom_site_occupancy
  Li  Li0  1  0.86363600  0.89772700  0.21590900  1
  Li  Li1  1  0.36363600  0.89772700  0.21590900  1
  Li  Li2  1  0.86363600  0.39772700  0.21590900  1
  Li  Li3  1  0.18181800  0.26136400  0.26136400  1
  Li  Li4  1  0.68181800  0.26136400  0.26136400  1
  Li  Li5  1  0.18181800  0.76136400  0.26136400  1
  Li  Li6  1  0.50000000  0.62500000  0.30681800  1
  Li  Li7  1  0.00000000  0.62500000  0.30681800  1
  Li  Li8  1  0.50000000  0.12500000  0.30681800  1
  Li  Li9  1  0.81818200  0.98863600  0.35227300  1
  Li  Li10  1  0.31818200  0.98863600  0.35227300  1
  Li  Li11  1  0.81818200  0.48863600  0.35227300  1
  Li  Li12  1  0.13636400  0.35227300  0.39772700  1
  Li  Li13  1  0.63636400  0.35227300  0.39772700  1
  Li  Li14  1  0.13636400  0.85227300  0.39772700  1
  Li  Li15  1  0.45454500  0.71590900  0.44318200  1
  Li  Li16  1  0.95454500  0.71590900  0.44318200  1
  Li  Li17  1  0.45454500  0.21590900  0.44318200  1
  Li  Li18  1  0.77272700  0.07954500  0.48863600  1
  Li  Li19  1  0.27272700  0.07954500  0.48863600  1
  Li  Li20  1  0.77272700  0.57954500  0.48863600  1
  Li  Li21  1  0.09090900  0.44318200  0.53409100  1
  Li  Li22  1  0.59090900  0.44318200  0.53409100  1
  Li  Li23  1  0.09090900  0.94318200  0.53409100  1
  Li  Li24  1  0.40909100  0.80681800  0.57954500  1
  Li  Li25  1  0.90909100  0.80681800  0.57954500  1
  Li  Li26  1  0.40909100  0.30681800  0.57954500  1
  Li  Li27  1  0.72727300  0.17045500  0.62500000  1
  Li  Li28  1  0.22727300  0.17045500  0.62500000  1
  Li  Li29  1  0.72727300  0.67045500  0.62500000  1
  Li  Li30  1  0.04545500  0.53409100  0.67045500  1
  Li  Li31  1  0.54545500  0.53409100  0.67045500  1
  Li  Li32  1  0.04545500  0.03409100  0.67045500  1
  Li  Li33  1  0.36363600  0.89772700  0.71590900  1
  Li  Li34  1  0.86363600  0.89772700  0.71590900  1
  Li  Li35  1  0.36363600  0.39772700  0.71590900  1
  Li  Li36  1  0.68181800  0.26136400  0.76136400  1
  Li  Li37  1  0.18181800  0.26136400  0.76136400  1
  Li  Li38  1  0.68181800  0.76136400  0.76136400  1
  Mg  Mg39  1  0.20454500  0.71590900  0.19318200  1
  Mg  Mg40  1  0.02272700  0.07954500  0.23863600  1
  Mg  Mg41  1  0.52272700  0.57954500  0.23863600  1
  Mg  Mg42  1  0.02272700  0.57954500  0.23863600  1
  Mg  Mg43  1  0.68181800  0.76136400  0.26136400  1
  Mg  Mg44  1  0.52272700  0.07954500  0.23863600  1
  Mg  Mg45  1  0.70454500  0.71590900  0.19318200  1
  Mg  Mg46  1  0.20454500  0.21590900  0.19318200  1
  Mg  Mg47  1  0.70454500  0.21590900  0.19318200  1
  Mg  Mg48  1  0.36363600  0.39772700  0.21590900  1
  Mg  Mg49  1  0.84090900  0.44318200  0.28409100  1
  Mg  Mg50  1  0.65909100  0.80681800  0.32954500  1
  Mg  Mg51  1  0.15909100  0.30681800  0.32954500  1
  Mg  Mg52  1  0.65909100  0.30681800  0.32954500  1
  Mg  Mg53  1  0.31818200  0.48863600  0.35227300  1
  Mg  Mg54  1  0.15909100  0.80681800  0.32954500  1
  Mg  Mg55  1  0.34090900  0.44318200  0.28409100  1
  Mg  Mg56  1  0.84090900  0.94318200  0.28409100  1
  Mg  Mg57  1  0.34090900  0.94318200  0.28409100  1
  Mg  Mg58  1  1.00000000  0.12500000  0.30681800  1
  Mg  Mg59  1  0.47727300  0.17045500  0.37500000  1
  Mg  Mg60  1  0.29545500  0.53409100  0.42045500  1
  Mg  Mg61  1  0.79545500  0.03409100  0.42045500  1
  Mg  Mg62  1  0.29545500  0.03409100  0.42045500  1
  Mg  Mg63  1  0.95454500  0.21590900  0.44318200  1
  Mg  Mg64  1  0.79545500  0.53409100  0.42045500  1
  Mg  Mg65  1  0.97727300  0.17045500  0.37500000  1
  Mg  Mg66  1  0.47727300  0.67045500  0.37500000  1
  Mg  Mg67  1  0.97727300  0.67045500  0.37500000  1
  Mg  Mg68  1  0.63636400  0.85227300  0.39772700  1
  Mg  Mg69  1  0.11363600  0.89772700  0.46590900  1
  Mg  Mg70  1  0.93181800  0.26136400  0.51136400  1
  Mg  Mg71  1  0.43181800  0.76136400  0.51136400  1
  Mg  Mg72  1  0.93181800  0.76136400  0.51136400  1
  Mg  Mg73  1  0.59090900  0.94318200  0.53409100  1
  Mg  Mg74  1  0.43181800  0.26136400  0.51136400  1
  Mg  Mg75  1  0.61363600  0.89772700  0.46590900  1
  Mg  Mg76  1  0.11363600  0.39772700  0.46590900  1
  Mg  Mg77  1  0.61363600  0.39772700  0.46590900  1
  Mg  Mg78  1  0.27272700  0.57954500  0.48863600  1
  Mg  Mg79  1  0.75000000  0.62500000  0.55681800  1
  Mg  Mg80  1  0.56818200  0.98863600  0.60227300  1
  Mg  Mg81  1  0.06818200  0.48863600  0.60227300  1
  Mg  Mg82  1  0.56818200  0.48863600  0.60227300  1
  Mg  Mg83  1  0.22727300  0.67045500  0.62500000  1
  Mg  Mg84  1  0.06818200  0.98863600  0.60227300  1
  Mg  Mg85  1  0.25000000  0.62500000  0.55681800  1
  Mg  Mg86  1  0.75000000  0.12500000  0.55681800  1
  Mg  Mg87  1  0.25000000  0.12500000  0.55681800  1
  Mg  Mg88  1  0.90909100  0.30681800  0.57954500  1
  Mg  Mg89  1  0.38636400  0.35227300  0.64772700  1
  Mg  Mg90  1  0.20454500  0.71590900  0.69318200  1
  Mg  Mg91  1  0.70454500  0.21590900  0.69318200  1
  Mg  Mg92  1  0.20454500  0.21590900  0.69318200  1
  Mg  Mg93  1  0.86363600  0.39772700  0.71590900  1
  Mg  Mg94  1  0.70454500  0.71590900  0.69318200  1
  Mg  Mg95  1  0.88636400  0.35227300  0.64772700  1
  Mg  Mg96  1  0.38636400  0.85227300  0.64772700  1
  Mg  Mg97  1  0.88636400  0.85227300  0.64772700  1
  Mg  Mg98  1  0.54545500  0.03409100  0.67045500  1
  Mg  Mg99  1  0.02272700  0.07954500  0.73863600  1
  Mg  Mg100  1  0.84090900  0.44318200  0.78409100  1
  Mg  Mg101  1  0.34090900  0.94318200  0.78409100  1
  Mg  Mg102  1  0.84090900  0.94318200  0.78409100  1
  Mg  Mg103  1  0.34090900  0.44318200  0.78409100  1
  Mg  Mg104  1  0.52272700  0.07954500  0.73863600  1
  Mg  Mg105  1  0.02272700  0.57954500  0.73863600  1
  Mg  Mg106  1  0.52272700  0.57954500  0.73863600  1
  Mg  Mg107  1  0.18181800  0.76136400  0.76136400  1
