# generated using pymatgen
data_Mg35In16
_symmetry_space_group_name_H-M   'P 1'
_cell_length_a   6.31272300
_cell_length_b   14.66298600
_cell_length_c   49.73402400
_cell_angle_alpha   90.00000000
_cell_angle_beta   90.00000000
_cell_angle_gamma   90.00000000
_symmetry_Int_Tables_number   1
_chemical_formula_structural   Mg35In16
_chemical_formula_sum   'Mg70 In32'
_cell_volume   4603.54881392
_cell_formula_units_Z   2
loop_
 _symmetry_equiv_pos_site_id
 _symmetry_equiv_pos_as_xyz
  1  'x, y, z'
loop_
 _atom_site_type_symbol
 _atom_site_label
 _atom_site_symmetry_multiplicity
 _atom_site_fract_x
 _atom_site_fract_y
 _atom_site_fract_z
 _atom_site_occupancy
  Mg  Mg0  1  0.00000000  0.91492400  0.30800100  1
  Mg  Mg1  1  0.50000000  0.58507600  0.28383600  1
  Mg  Mg2  1  0.00000000  0.58507600  0.23657200  1
  Mg  Mg3  1  0.50000000  0.91492400  0.35526400  1
  Mg  Mg4  1  0.75000000  0.00000000  0.26020400  1
  Mg  Mg5  1  0.25000000  0.00000000  0.26020400  1
  Mg  Mg6  1  0.25000000  0.73656800  0.33163300  1
  Mg  Mg7  1  0.75000000  0.76343200  0.26020400  1
  Mg  Mg8  1  0.25000000  0.76343200  0.26020400  1
  Mg  Mg9  1  0.75000000  0.73656800  0.33163300  1
  Mg  Mg10  1  0.50000000  0.41492400  0.23657200  1
  Mg  Mg11  1  0.00000000  0.08507600  0.35526400  1
  Mg  Mg12  1  0.50000000  0.08507600  0.30800100  1
  Mg  Mg13  1  0.00000000  0.41492400  0.28383600  1
  Mg  Mg14  1  0.25000000  0.50000000  0.33163300  1
  Mg  Mg15  1  0.75000000  0.50000000  0.33163300  1
  Mg  Mg16  1  0.75000000  0.23656800  0.26020400  1
  Mg  Mg17  1  0.25000000  0.26343200  0.33163300  1
  Mg  Mg18  1  0.75000000  0.26343200  0.33163300  1
  Mg  Mg19  1  0.25000000  0.23656800  0.26020400  1
  Mg  Mg20  1  0.00000000  0.91492400  0.45085800  1
  Mg  Mg21  1  0.50000000  0.58507600  0.42669300  1
  Mg  Mg22  1  0.00000000  0.58507600  0.37942900  1
  Mg  Mg23  1  0.50000000  0.91492400  0.49812200  1
  Mg  Mg24  1  0.75000000  0.00000000  0.40306100  1
  Mg  Mg25  1  0.25000000  0.00000000  0.40306100  1
  Mg  Mg26  1  0.25000000  0.73656800  0.47449000  1
  Mg  Mg27  1  0.75000000  0.76343200  0.40306100  1
  Mg  Mg28  1  0.25000000  0.76343200  0.40306100  1
  Mg  Mg29  1  0.75000000  0.73656800  0.47449000  1
  Mg  Mg30  1  0.50000000  0.41492400  0.37942900  1
  Mg  Mg31  1  0.00000000  0.08507600  0.49812200  1
  Mg  Mg32  1  0.50000000  0.08507600  0.45085800  1
  Mg  Mg33  1  0.00000000  0.41492400  0.42669300  1
  Mg  Mg34  1  0.25000000  0.50000000  0.47449000  1
  Mg  Mg35  1  0.75000000  0.50000000  0.47449000  1
  Mg  Mg36  1  0.75000000  0.23656800  0.40306100  1
  Mg  Mg37  1  0.25000000  0.26343200  0.47449000  1
  Mg  Mg38  1  0.75000000  0.26343200  0.47449000  1
  Mg  Mg39  1  0.25000000  0.23656800  0.40306100  1
  Mg  Mg40  1  0.00000000  0.91492400  0.59371500  1
  Mg  Mg41  1  0.50000000  0.58507600  0.56955000  1
  Mg  Mg42  1  0.00000000  0.58507600  0.52228700  1
  Mg  Mg43  1  0.50000000  0.91492400  0.64097900  1
  Mg  Mg44  1  0.75000000  0.00000000  0.54591800  1
  Mg  Mg45  1  0.25000000  0.00000000  0.54591800  1
  Mg  Mg46  1  0.25000000  0.73656800  0.61734700  1
  Mg  Mg47  1  0.75000000  0.76343200  0.54591800  1
  Mg  Mg48  1  0.25000000  0.76343200  0.54591800  1
  Mg  Mg49  1  0.75000000  0.73656800  0.61734700  1
  Mg  Mg50  1  0.50000000  0.41492400  0.52228700  1
  Mg  Mg51  1  0.00000000  0.08507600  0.64097900  1
  Mg  Mg52  1  0.50000000  0.08507600  0.59371500  1
  Mg  Mg53  1  0.00000000  0.41492400  0.56955000  1
  Mg  Mg54  1  0.25000000  0.50000000  0.61734700  1
  Mg  Mg55  1  0.75000000  0.50000000  0.61734700  1
  Mg  Mg56  1  0.75000000  0.23656800  0.54591800  1
  Mg  Mg57  1  0.25000000  0.26343200  0.61734700  1
  Mg  Mg58  1  0.75000000  0.26343200  0.61734700  1
  Mg  Mg59  1  0.25000000  0.23656800  0.54591800  1
  Mg  Mg60  1  0.50000000  0.58507600  0.71240700  1
  Mg  Mg61  1  0.00000000  0.58507600  0.66514400  1
  Mg  Mg62  1  0.75000000  0.00000000  0.68877600  1
  Mg  Mg63  1  0.25000000  0.00000000  0.68877600  1
  Mg  Mg64  1  0.75000000  0.76343200  0.68877600  1
  Mg  Mg65  1  0.25000000  0.76343200  0.68877600  1
  Mg  Mg66  1  0.50000000  0.41492400  0.66514400  1
  Mg  Mg67  1  0.00000000  0.41492400  0.71240700  1
  Mg  Mg68  1  0.75000000  0.23656800  0.68877600  1
  Mg  Mg69  1  0.25000000  0.23656800  0.68877600  1
  In  In70  1  0.00000000  0.87796300  0.22289400  1
  In  In71  1  0.50000000  0.62203700  0.22608600  1
  In  In72  1  0.00000000  0.62203700  0.29432200  1
  In  In73  1  0.50000000  0.87796300  0.29751400  1
  In  In74  1  0.50000000  0.37796300  0.29432200  1
  In  In75  1  1.00000000  0.12203700  0.29751400  1
  In  In76  1  0.50000000  0.12203700  0.22289400  1
  In  In77  1  0.00000000  0.37796300  0.22608600  1
  In  In78  1  0.00000000  0.87796300  0.36575100  1
  In  In79  1  0.50000000  0.62203700  0.36894300  1
  In  In80  1  0.00000000  0.62203700  0.43717900  1
  In  In81  1  0.50000000  0.87796300  0.44037200  1
  In  In82  1  0.50000000  0.37796300  0.43717900  1
  In  In83  1  1.00000000  0.12203700  0.44037200  1
  In  In84  1  0.50000000  0.12203700  0.36575100  1
  In  In85  1  0.00000000  0.37796300  0.36894300  1
  In  In86  1  0.00000000  0.87796300  0.50860800  1
  In  In87  1  0.50000000  0.62203700  0.51180000  1
  In  In88  1  0.00000000  0.62203700  0.58003700  1
  In  In89  1  0.50000000  0.87796300  0.58322900  1
  In  In90  1  0.50000000  0.37796300  0.58003700  1
  In  In91  1  1.00000000  0.12203700  0.58322900  1
  In  In92  1  0.50000000  0.12203700  0.50860800  1
  In  In93  1  1.00000000  0.37796300  0.51180000  1
  In  In94  1  0.00000000  0.87796300  0.65146500  1
  In  In95  1  0.50000000  0.62203700  0.65465700  1
  In  In96  1  0.00000000  0.62203700  0.72289400  1
  In  In97  1  0.50000000  0.87796300  0.72608600  1
  In  In98  1  0.50000000  0.37796300  0.72289400  1
  In  In99  1  0.00000000  0.12203700  0.72608600  1
  In  In100  1  0.50000000  0.12203700  0.65146500  1
  In  In101  1  0.00000000  0.37796300  0.65465700  1
