# generated using pymatgen
data_Tm22Mg7
_symmetry_space_group_name_H-M   'P 1'
_cell_length_a   3.51094100
_cell_length_b   9.91504465
_cell_length_c   42.84223900
_cell_angle_alpha   85.08843848
_cell_angle_beta   90.00000000
_cell_angle_gamma   90.00000000
_symmetry_Int_Tables_number   1
_chemical_formula_structural   Tm22Mg7
_chemical_formula_sum   'Tm22 Mg7'
_cell_volume   1485.91072777
_cell_formula_units_Z   1
loop_
 _symmetry_equiv_pos_site_id
 _symmetry_equiv_pos_as_xyz
  1  'x, y, z'
loop_
 _atom_site_type_symbol
 _atom_site_label
 _atom_site_symmetry_multiplicity
 _atom_site_fract_x
 _atom_site_fract_y
 _atom_site_fract_z
 _atom_site_occupancy
  Tm  Tm0  1  0.50000000  0.62262300  0.26021900  1
  Tm  Tm1  1  0.00000000  0.48137200  0.20192300  1
  Tm  Tm2  1  0.50000000  0.18627600  0.22055100  1
  Tm  Tm3  1  0.50000000  0.46877700  0.33714200  1
  Tm  Tm4  1  0.00000000  0.32752600  0.27884600  1
  Tm  Tm5  1  0.50000000  0.03243000  0.29747400  1
  Tm  Tm6  1  0.50000000  0.31493100  0.41406500  1
  Tm  Tm7  1  0.00000000  0.17368000  0.35576900  1
  Tm  Tm8  1  0.50000000  0.87858300  0.37439700  1
  Tm  Tm9  1  0.50000000  0.16108500  0.49098800  1
  Tm  Tm10  1  0.00000000  0.01983400  0.43269200  1
  Tm  Tm11  1  0.50000000  0.72473700  0.45132000  1
  Tm  Tm12  1  0.50000000  0.00723800  0.56791100  1
  Tm  Tm13  1  0.00000000  0.86598800  0.50961500  1
  Tm  Tm14  1  0.50000000  0.57089100  0.52824300  1
  Tm  Tm15  1  0.50000000  0.85339200  0.64483400  1
  Tm  Tm16  1  0.00000000  0.71214200  0.58653800  1
  Tm  Tm17  1  0.50000000  0.41704500  0.60516600  1
  Tm  Tm18  1  0.50000000  0.69954600  0.72175700  1
  Tm  Tm19  1  0.00000000  0.55829600  0.66346200  1
  Tm  Tm20  1  0.50000000  0.26319900  0.68208900  1
  Tm  Tm21  1  0.00000000  0.40444900  0.74038500  1
  Mg  Mg22  1  0.00000000  0.90444900  0.24038500  1
  Mg  Mg23  1  1.00000000  0.75060300  0.31730800  1
  Mg  Mg24  1  0.00000000  0.59675700  0.39423100  1
  Mg  Mg25  1  0.00000000  0.44291100  0.47115400  1
  Mg  Mg26  1  0.00000000  0.28906500  0.54807700  1
  Mg  Mg27  1  0.00000000  0.13521900  0.62500000  1
  Mg  Mg28  1  0.00000000  0.98137200  0.70192300  1
