# generated using pymatgen
data_Li4Mg9
_symmetry_space_group_name_H-M   'P 1'
_cell_length_a   5.06834700
_cell_length_b   8.55483815
_cell_length_c   42.04420300
_cell_angle_alpha   91.27622824
_cell_angle_beta   90.00000000
_cell_angle_gamma   90.00000000
_symmetry_Int_Tables_number   1
_chemical_formula_structural   Li4Mg9
_chemical_formula_sum   'Li16 Mg36'
_cell_volume   1822.53768168
_cell_formula_units_Z   4
loop_
 _symmetry_equiv_pos_site_id
 _symmetry_equiv_pos_as_xyz
  1  'x, y, z'
loop_
 _atom_site_type_symbol
 _atom_site_label
 _atom_site_symmetry_multiplicity
 _atom_site_fract_x
 _atom_site_fract_y
 _atom_site_fract_z
 _atom_site_occupancy
  Li  Li0  1  0.25000000  0.95795500  0.72995200  1
  Li  Li1  1  0.75000000  0.51823500  0.74623800  1
  Li  Li2  1  0.25000000  0.88652700  0.65852400  1
  Li  Li3  1  0.75000000  0.44680600  0.67481000  1
  Li  Li4  1  0.25000000  0.81509800  0.58709500  1
  Li  Li5  1  0.75000000  0.37537800  0.60338100  1
  Li  Li6  1  0.25000000  0.74367000  0.51566700  1
  Li  Li7  1  0.75000000  0.30394900  0.53195200  1
  Li  Li8  1  0.25000000  0.67224100  0.44423800  1
  Li  Li9  1  0.75000000  0.23252100  0.46052400  1
  Li  Li10  1  0.25000000  0.60081300  0.37280900  1
  Li  Li11  1  0.75000000  0.16109200  0.38909500  1
  Li  Li12  1  0.25000000  0.52938400  0.30138100  1
  Li  Li13  1  0.75000000  0.08966400  0.31766700  1
  Li  Li14  1  0.25000000  0.45795500  0.22995200  1
  Li  Li15  1  0.75000000  0.01823500  0.24623800  1
  Mg  Mg16  1  0.25000000  0.31771500  0.75366500  1
  Mg  Mg17  1  0.25000000  0.67519900  0.77746200  1
  Mg  Mg18  1  0.75000000  0.22990400  0.79395400  1
  Mg  Mg19  1  0.75000000  0.87242000  0.77015700  1
  Mg  Mg20  1  0.25000000  0.24628700  0.68223600  1
  Mg  Mg21  1  0.25000000  0.60377000  0.70603300  1
  Mg  Mg22  1  0.75000000  0.15847500  0.72252600  1
  Mg  Mg23  1  0.75000000  0.80099200  0.69872900  1
  Mg  Mg24  1  0.25000000  0.17485800  0.61080800  1
  Mg  Mg25  1  0.25000000  0.53234200  0.63460500  1
  Mg  Mg26  1  0.75000000  0.08704700  0.65109700  1
  Mg  Mg27  1  0.75000000  0.72956300  0.62730000  1
  Mg  Mg28  1  0.25000000  0.10343000  0.53937900  1
  Mg  Mg29  1  0.25000000  0.46091300  0.56317600  1
  Mg  Mg30  1  0.75000000  0.01561800  0.57966800  1
  Mg  Mg31  1  0.75000000  0.65813500  0.55587200  1
  Mg  Mg32  1  0.25000000  0.03200100  0.46795100  1
  Mg  Mg33  1  0.25000000  0.38948400  0.49174700  1
  Mg  Mg34  1  0.75000000  0.94418900  0.50824000  1
  Mg  Mg35  1  0.75000000  0.58670600  0.48444300  1
  Mg  Mg36  1  0.25000000  0.96057200  0.39652200  1
  Mg  Mg37  1  0.25000000  0.31805600  0.42031900  1
  Mg  Mg38  1  0.75000000  0.87276100  0.43681100  1
  Mg  Mg39  1  0.75000000  0.51527800  0.41301400  1
  Mg  Mg40  1  0.25000000  0.88914400  0.32509300  1
  Mg  Mg41  1  0.25000000  0.24662700  0.34889000  1
  Mg  Mg42  1  0.75000000  0.80133200  0.36538300  1
  Mg  Mg43  1  0.75000000  0.44384900  0.34158600  1
  Mg  Mg44  1  0.25000000  0.81771500  0.25366500  1
  Mg  Mg45  1  0.25000000  0.17519900  0.27746200  1
  Mg  Mg46  1  0.75000000  0.72990400  0.29395400  1
  Mg  Mg47  1  0.75000000  0.37242000  0.27015700  1
  Mg  Mg48  1  0.25000000  0.74628700  0.18223600  1
  Mg  Mg49  1  0.25000000  0.10377000  0.20603300  1
  Mg  Mg50  1  0.75000000  0.65847500  0.22252600  1
  Mg  Mg51  1  0.75000000  0.30099200  0.19872900  1
