# generated using pymatgen
data_Mg29In12
_symmetry_space_group_name_H-M   'P 1'
_cell_length_a   9.50418390
_cell_length_b   15.96413630
_cell_length_c   44.93250200
_cell_angle_alpha   88.74178919
_cell_angle_beta   89.64260529
_cell_angle_gamma   74.77278805
_symmetry_Int_Tables_number   1
_chemical_formula_structural   Mg29In12
_chemical_formula_sum   'Mg116 In48'
_cell_volume   6576.49852534
_cell_formula_units_Z   4
loop_
 _symmetry_equiv_pos_site_id
 _symmetry_equiv_pos_as_xyz
  1  'x, y, z'
loop_
 _atom_site_type_symbol
 _atom_site_label
 _atom_site_symmetry_multiplicity
 _atom_site_fract_x
 _atom_site_fract_y
 _atom_site_fract_z
 _atom_site_occupancy
  Mg  Mg0  1  0.31111100  0.32634600  0.29017700  1
  Mg  Mg1  1  0.74454300  0.06256800  0.22410800  1
  Mg  Mg2  1  0.27782700  0.94445700  0.25714300  1
  Mg  Mg3  1  0.67245400  0.18154500  0.28348600  1
  Mg  Mg4  1  0.18320000  0.15736800  0.28080000  1
  Mg  Mg5  1  0.38320000  0.20736800  0.23080000  1
  Mg  Mg6  1  0.87245400  0.23154500  0.23348600  1
  Mg  Mg7  1  0.44305000  0.52948300  0.25719300  1
  Mg  Mg8  1  0.61260400  0.85943000  0.25709300  1
  Mg  Mg9  1  0.01111100  0.87634600  0.24017700  1
  Mg  Mg10  1  0.04454300  0.51256800  0.27410800  1
  Mg  Mg11  1  0.77782700  0.44445700  0.25714300  1
  Mg  Mg12  1  0.37245400  0.73154500  0.23348600  1
  Mg  Mg13  1  0.88320000  0.70736800  0.23080000  1
  Mg  Mg14  1  0.68320000  0.65736800  0.28080000  1
  Mg  Mg15  1  0.17245400  0.68154500  0.28348600  1
  Mg  Mg16  1  0.74305000  0.97948300  0.30719300  1
  Mg  Mg17  1  0.91260400  0.30943000  0.30709300  1
  Mg  Mg18  1  0.91111100  0.22634600  0.39017700  1
  Mg  Mg19  1  0.34454300  0.96256800  0.32410800  1
  Mg  Mg20  1  0.87782700  0.84445700  0.35714300  1
  Mg  Mg21  1  0.07782700  0.89445700  0.30714300  1
  Mg  Mg22  1  0.27245400  0.08154500  0.38348600  1
  Mg  Mg23  1  0.78320000  0.05736800  0.38080000  1
  Mg  Mg24  1  0.98320000  0.10736800  0.33080000  1
  Mg  Mg25  1  0.47245400  0.13154500  0.33348600  1
  Mg  Mg26  1  0.04305000  0.42948300  0.35719300  1
  Mg  Mg27  1  0.21260400  0.75943000  0.35709300  1
  Mg  Mg28  1  0.61111100  0.77634600  0.34017700  1
  Mg  Mg29  1  0.64454300  0.41256800  0.37410800  1
  Mg  Mg30  1  0.57782700  0.39445700  0.30714300  1
  Mg  Mg31  1  0.37782700  0.34445700  0.35714300  1
  Mg  Mg32  1  0.97245400  0.63154500  0.33348600  1
  Mg  Mg33  1  0.48320000  0.60736800  0.33080000  1
  Mg  Mg34  1  0.28320000  0.55736800  0.38080000  1
  Mg  Mg35  1  0.77245400  0.58154500  0.38348600  1
  Mg  Mg36  1  0.34305000  0.87948300  0.40719300  1
  Mg  Mg37  1  0.51260400  0.20943000  0.40709300  1
  Mg  Mg38  1  0.51111100  0.12634600  0.49017700  1
  Mg  Mg39  1  0.94454300  0.86256800  0.42410800  1
  Mg  Mg40  1  0.47782700  0.74445700  0.45714300  1
  Mg  Mg41  1  0.67782700  0.79445700  0.40714300  1
  Mg  Mg42  1  0.87245400  0.98154500  0.48348600  1
  Mg  Mg43  1  0.38320000  0.95736800  0.48080000  1
  Mg  Mg44  1  0.58320000  0.00736800  0.43080000  1
  Mg  Mg45  1  0.07245400  0.03154500  0.43348600  1
  Mg  Mg46  1  0.64305000  0.32948300  0.45719300  1
  Mg  Mg47  1  0.81260400  0.65943000  0.45709300  1
  Mg  Mg48  1  0.21111100  0.67634600  0.44017700  1
  Mg  Mg49  1  0.24454300  0.31256800  0.47410800  1
  Mg  Mg50  1  0.17782700  0.29445700  0.40714300  1
  Mg  Mg51  1  0.97782700  0.24445700  0.45714300  1
  Mg  Mg52  1  0.57245400  0.53154500  0.43348600  1
  Mg  Mg53  1  0.08320000  0.50736800  0.43080000  1
  Mg  Mg54  1  0.88320000  0.45736800  0.48080000  1
  Mg  Mg55  1  0.37245400  0.48154500  0.48348600  1
  Mg  Mg56  1  0.94305000  0.77948300  0.50719300  1
  Mg  Mg57  1  0.11260400  0.10943000  0.50709300  1
  Mg  Mg58  1  0.11111100  0.02634600  0.59017700  1
  Mg  Mg59  1  0.54454300  0.76256800  0.52410800  1
  Mg  Mg60  1  0.07782700  0.64445700  0.55714300  1
  Mg  Mg61  1  0.27782700  0.69445700  0.50714300  1
  Mg  Mg62  1  0.47245400  0.88154500  0.58348600  1
  Mg  Mg63  1  0.98320000  0.85736800  0.58080000  1
  Mg  Mg64  1  0.18320000  0.90736800  0.53080000  1
  Mg  Mg65  1  0.67245400  0.93154500  0.53348600  1
  Mg  Mg66  1  0.24305000  0.22948300  0.55719300  1
  Mg  Mg67  1  0.41260400  0.55943000  0.55709300  1
  Mg  Mg68  1  0.81111100  0.57634600  0.54017700  1
  Mg  Mg69  1  0.84454300  0.21256800  0.57410800  1
  Mg  Mg70  1  0.77782700  0.19445700  0.50714300  1
  Mg  Mg71  1  0.57782700  0.14445700  0.55714300  1
  Mg  Mg72  1  0.17245400  0.43154500  0.53348600  1
  Mg  Mg73  1  0.68320000  0.40736800  0.53080000  1
  Mg  Mg74  1  0.48320000  0.35736800  0.58080000  1
  Mg  Mg75  1  0.97245400  0.38154500  0.58348600  1
  Mg  Mg76  1  0.54305000  0.67948300  0.60719300  1
  Mg  Mg77  1  0.71260400  0.00943000  0.60709300  1
  Mg  Mg78  1  0.71111100  0.92634600  0.69017700  1
  Mg  Mg79  1  0.14454300  0.66256800  0.62410800  1
  Mg  Mg80  1  0.67782700  0.54445700  0.65714300  1
  Mg  Mg81  1  0.87782700  0.59445700  0.60714300  1
  Mg  Mg82  1  0.07245400  0.78154500  0.68348600  1
  Mg  Mg83  1  0.58320000  0.75736800  0.68080000  1
  Mg  Mg84  1  0.78320000  0.80736800  0.63080000  1
  Mg  Mg85  1  0.27245400  0.83154500  0.63348600  1
  Mg  Mg86  1  0.84305000  0.12948300  0.65719300  1
  Mg  Mg87  1  0.01260400  0.45943000  0.65709300  1
  Mg  Mg88  1  0.41111100  0.47634600  0.64017700  1
  Mg  Mg89  1  0.44454300  0.11256800  0.67410800  1
  Mg  Mg90  1  0.37782700  0.09445700  0.60714300  1
  Mg  Mg91  1  0.17782700  0.04445700  0.65714300  1
  Mg  Mg92  1  0.77245400  0.33154500  0.63348600  1
  Mg  Mg93  1  0.28320000  0.30736800  0.63080000  1
  Mg  Mg94  1  0.08320000  0.25736800  0.68080000  1
  Mg  Mg95  1  0.57245400  0.28154500  0.68348600  1
  Mg  Mg96  1  0.14305000  0.57948300  0.70719300  1
  Mg  Mg97  1  0.31260400  0.90943000  0.70709300  1
  Mg  Mg98  1  0.31111100  0.82634600  0.79017700  1
  Mg  Mg99  1  0.74454300  0.56256800  0.72410800  1
  Mg  Mg100  1  0.27782700  0.44445700  0.75714300  1
  Mg  Mg101  1  0.47782700  0.49445700  0.70714300  1
  Mg  Mg102  1  0.67245400  0.68154500  0.78348600  1
  Mg  Mg103  1  0.18320000  0.65736800  0.78080000  1
  Mg  Mg104  1  0.38320000  0.70736800  0.73080000  1
  Mg  Mg105  1  0.87245400  0.73154500  0.73348600  1
  Mg  Mg106  1  0.44305000  0.02948300  0.75719300  1
  Mg  Mg107  1  0.61260400  0.35943000  0.75709300  1
  Mg  Mg108  1  0.01111100  0.37634600  0.74017700  1
  Mg  Mg109  1  0.04454300  0.01256800  0.77410800  1
  Mg  Mg110  1  0.97782700  0.99445700  0.70714300  1
  Mg  Mg111  1  0.77782700  0.94445700  0.75714300  1
  Mg  Mg112  1  0.37245400  0.23154500  0.73348600  1
  Mg  Mg113  1  0.88320000  0.20736800  0.73080000  1
  Mg  Mg114  1  0.68320000  0.15736800  0.78080000  1
  Mg  Mg115  1  0.17245400  0.18154500  0.78348600  1
  In  In116  1  0.48571600  0.05317300  0.27046400  1
  In  In117  1  0.56993900  0.33574000  0.24382200  1
  In  In118  1  0.08334500  0.33350600  0.24605600  1
  In  In119  1  0.97230900  0.05540800  0.26822900  1
  In  In120  1  0.18571600  0.60317300  0.22046400  1
  In  In121  1  0.86993900  0.78574000  0.29382200  1
  In  In122  1  0.38334500  0.78350600  0.29605600  1
  In  In123  1  0.67230900  0.60540800  0.21822900  1
  In  In124  1  0.08571600  0.95317300  0.37046400  1
  In  In125  1  0.16993900  0.23574000  0.34382200  1
  In  In126  1  0.68334500  0.23350600  0.34605600  1
  In  In127  1  0.57230900  0.95540800  0.36822900  1
  In  In128  1  0.78571600  0.50317300  0.32046400  1
  In  In129  1  0.46993900  0.68574000  0.39382200  1
  In  In130  1  0.98334500  0.68350600  0.39605600  1
  In  In131  1  0.27230900  0.50540800  0.31822900  1
  In  In132  1  0.68571600  0.85317300  0.47046400  1
  In  In133  1  0.76993900  0.13574000  0.44382200  1
  In  In134  1  0.28334500  0.13350600  0.44605600  1
  In  In135  1  0.17230900  0.85540800  0.46822900  1
  In  In136  1  0.38571600  0.40317300  0.42046400  1
  In  In137  1  0.06993900  0.58574000  0.49382200  1
  In  In138  1  0.58334500  0.58350600  0.49605600  1
  In  In139  1  0.87230900  0.40540800  0.41822900  1
  In  In140  1  0.28571600  0.75317300  0.57046400  1
  In  In141  1  0.36993900  0.03574000  0.54382200  1
  In  In142  1  0.88334500  0.03350600  0.54605600  1
  In  In143  1  0.77230900  0.75540800  0.56822900  1
  In  In144  1  0.98571600  0.30317300  0.52046400  1
  In  In145  1  0.66993900  0.48574000  0.59382200  1
  In  In146  1  0.18334500  0.48350600  0.59605600  1
  In  In147  1  0.47230900  0.30540800  0.51822900  1
  In  In148  1  0.88571600  0.65317300  0.67046400  1
  In  In149  1  0.96993900  0.93574000  0.64382200  1
  In  In150  1  0.48334500  0.93350600  0.64605600  1
  In  In151  1  0.37230900  0.65540800  0.66822900  1
  In  In152  1  0.58571600  0.20317300  0.62046400  1
  In  In153  1  0.26993900  0.38574000  0.69382200  1
  In  In154  1  0.78334500  0.38350600  0.69605600  1
  In  In155  1  0.07230900  0.20540800  0.61822900  1
  In  In156  1  0.48571600  0.55317300  0.77046400  1
  In  In157  1  0.56993900  0.83574000  0.74382200  1
  In  In158  1  0.08334500  0.83350600  0.74605600  1
  In  In159  1  0.97230900  0.55540800  0.76822900  1
  In  In160  1  0.18571600  0.10317300  0.72046400  1
  In  In161  1  0.86993900  0.28574000  0.79382200  1
  In  In162  1  0.38334500  0.28350600  0.79605600  1
  In  In163  1  0.67230900  0.10540800  0.71822900  1
