# generated using pymatgen
data_Li2Mg
_symmetry_space_group_name_H-M   'P 1'
_cell_length_a   3.95430300
_cell_length_b   9.85879148
_cell_length_c   40.69723800
_cell_angle_alpha   90.00000000
_cell_angle_beta   90.00000000
_cell_angle_gamma   90.60602622
_symmetry_Int_Tables_number   1
_chemical_formula_structural   Li2Mg
_chemical_formula_sum   'Li32 Mg16'
_cell_volume   1586.47877830
_cell_formula_units_Z   16
loop_
 _symmetry_equiv_pos_site_id
 _symmetry_equiv_pos_as_xyz
  1  'x, y, z'
loop_
 _atom_site_type_symbol
 _atom_site_label
 _atom_site_symmetry_multiplicity
 _atom_site_fract_x
 _atom_site_fract_y
 _atom_site_fract_z
 _atom_site_occupancy
  Li  Li0  1  0.99961300  0.82933100  0.75000000  1
  Li  Li1  1  0.50038700  0.67066900  0.78846200  1
  Li  Li2  1  0.49961300  0.32933100  0.78846200  1
  Li  Li3  1  0.00038700  0.17066900  0.75000000  1
  Li  Li4  1  0.99961300  0.82933100  0.67307700  1
  Li  Li5  1  0.50038700  0.67066900  0.71153800  1
  Li  Li6  1  0.49961300  0.32933100  0.71153800  1
  Li  Li7  1  0.00038700  0.17066900  0.67307700  1
  Li  Li8  1  0.99961300  0.82933100  0.59615400  1
  Li  Li9  1  0.50038700  0.67066900  0.63461500  1
  Li  Li10  1  0.49961300  0.32933100  0.63461500  1
  Li  Li11  1  0.00038700  0.17066900  0.59615400  1
  Li  Li12  1  0.99961300  0.82933100  0.51923100  1
  Li  Li13  1  0.50038700  0.67066900  0.55769200  1
  Li  Li14  1  0.49961300  0.32933100  0.55769200  1
  Li  Li15  1  0.00038700  0.17066900  0.51923100  1
  Li  Li16  1  0.99961300  0.82933100  0.44230800  1
  Li  Li17  1  0.50038700  0.67066900  0.48076900  1
  Li  Li18  1  0.49961300  0.32933100  0.48076900  1
  Li  Li19  1  0.00038700  0.17066900  0.44230800  1
  Li  Li20  1  0.99961300  0.82933100  0.36538500  1
  Li  Li21  1  0.50038700  0.67066900  0.40384600  1
  Li  Li22  1  0.49961300  0.32933100  0.40384600  1
  Li  Li23  1  0.00038700  0.17066900  0.36538500  1
  Li  Li24  1  0.99961300  0.82933100  0.28846200  1
  Li  Li25  1  0.50038700  0.67066900  0.32692300  1
  Li  Li26  1  0.49961300  0.32933100  0.32692300  1
  Li  Li27  1  0.00038700  0.17066900  0.28846200  1
  Li  Li28  1  0.99961300  0.82933100  0.21153800  1
  Li  Li29  1  0.50038700  0.67066900  0.25000000  1
  Li  Li30  1  0.49961300  0.32933100  0.25000000  1
  Li  Li31  1  0.00038700  0.17066900  0.21153800  1
  Mg  Mg32  1  0.50000000  1.00000000  0.78846200  1
  Mg  Mg33  1  1.00000000  0.50000000  0.75000000  1
  Mg  Mg34  1  0.50000000  1.00000000  0.71153800  1
  Mg  Mg35  1  1.00000000  0.50000000  0.67307700  1
  Mg  Mg36  1  0.50000000  1.00000000  0.63461500  1
  Mg  Mg37  1  1.00000000  0.50000000  0.59615400  1
  Mg  Mg38  1  0.50000000  1.00000000  0.55769200  1
  Mg  Mg39  1  1.00000000  0.50000000  0.51923100  1
  Mg  Mg40  1  0.50000000  1.00000000  0.48076900  1
  Mg  Mg41  1  1.00000000  0.50000000  0.44230800  1
  Mg  Mg42  1  0.50000000  1.00000000  0.40384600  1
  Mg  Mg43  1  1.00000000  0.50000000  0.36538500  1
  Mg  Mg44  1  0.50000000  1.00000000  0.32692300  1
  Mg  Mg45  1  1.00000000  0.50000000  0.28846200  1
  Mg  Mg46  1  0.50000000  1.00000000  0.25000000  1
  Mg  Mg47  1  1.00000000  0.50000000  0.21153800  1
