# generated using pymatgen
data_BaMg7
_symmetry_space_group_name_H-M   'P 1'
_cell_length_a   8.04420318
_cell_length_b   8.04420367
_cell_length_c   47.60074400
_cell_angle_alpha   86.88333695
_cell_angle_beta   86.88333676
_cell_angle_gamma   82.20349510
_symmetry_Int_Tables_number   1
_chemical_formula_structural   BaMg7
_chemical_formula_sum   'Ba8 Mg56'
_cell_volume   3043.77964963
_cell_formula_units_Z   8
loop_
 _symmetry_equiv_pos_site_id
 _symmetry_equiv_pos_as_xyz
  1  'x, y, z'
loop_
 _atom_site_type_symbol
 _atom_site_label
 _atom_site_symmetry_multiplicity
 _atom_site_fract_x
 _atom_site_fract_y
 _atom_site_fract_z
 _atom_site_occupancy
  Ba  Ba0  1  0.50716400  0.82580500  0.82980400  1
  Ba  Ba1  1  0.88757300  0.20621300  0.77546000  1
  Ba  Ba2  1  0.67383100  0.99247100  0.66313700  1
  Ba  Ba3  1  0.05423900  0.37288000  0.60879300  1
  Ba  Ba4  1  0.84049700  0.15913800  0.49647000  1
  Ba  Ba5  1  0.22090600  0.53954600  0.44212600  1
  Ba  Ba6  1  0.00716400  0.32580500  0.32980400  1
  Ba  Ba7  1  0.38757300  0.70621300  0.27546000  1
  Mg  Mg8  1  0.32945600  0.35556900  0.67054400  1
  Mg  Mg9  1  0.60053100  0.91917100  0.74422200  1
  Mg  Mg10  1  0.87849000  0.69142400  0.77675700  1
  Mg  Mg11  1  0.39361900  0.71226000  0.70316700  1
  Mg  Mg12  1  0.03692800  0.64809700  0.67054400  1
  Mg  Mg13  1  0.23194700  0.84311600  0.76805300  1
  Mg  Mg14  1  0.02195300  0.83488700  0.82850600  1
  Mg  Mg15  1  0.16778400  0.48642500  0.73542900  1
  Mg  Mg16  1  0.57323000  0.30681400  0.71929800  1
  Mg  Mg17  1  0.78070200  0.59934200  0.71929800  1
  Mg  Mg18  1  0.52447500  0.55058700  0.76805300  1
  Mg  Mg19  1  0.51624700  0.34059400  0.82850600  1
  Mg  Mg20  1  0.96087300  0.27951300  0.69437500  1
  Mg  Mg21  1  0.37278400  0.19713100  0.77675700  1
  Mg  Mg22  1  0.19736800  0.51600900  0.80263200  1
  Mg  Mg23  1  0.98817400  0.89187000  0.71929800  1
  Mg  Mg24  1  0.28070200  0.09934200  0.71929800  1
  Mg  Mg25  1  0.49612300  0.52223500  0.50387700  1
  Mg  Mg26  1  0.76719800  0.08583800  0.57755500  1
  Mg  Mg27  1  0.04515700  0.85809100  0.61009000  1
  Mg  Mg28  1  0.56028600  0.87892600  0.53650100  1
  Mg  Mg29  1  0.20359500  0.81476400  0.50387700  1
  Mg  Mg30  1  0.39861400  0.00978200  0.60138600  1
  Mg  Mg31  1  0.18862000  0.00155400  0.66183900  1
  Mg  Mg32  1  0.33445100  0.65309100  0.56876300  1
  Mg  Mg33  1  0.73989700  0.47348100  0.55263200  1
  Mg  Mg34  1  0.94736800  0.76600900  0.55263200  1
  Mg  Mg35  1  0.69114200  0.71725400  0.60138600  1
  Mg  Mg36  1  0.68291300  0.50726000  0.66183900  1
  Mg  Mg37  1  0.12753900  0.44618000  0.52770800  1
  Mg  Mg38  1  0.53945000  0.36379700  0.61009000  1
  Mg  Mg39  1  0.36403500  0.68267600  0.63596500  1
  Mg  Mg40  1  0.15484000  0.05853700  0.55263200  1
  Mg  Mg41  1  0.44736800  0.26600900  0.55263200  1
  Mg  Mg42  1  0.66279000  0.68890200  0.33721000  1
  Mg  Mg43  1  0.93386400  0.25250500  0.41088800  1
  Mg  Mg44  1  0.21182400  0.02475700  0.44342400  1
  Mg  Mg45  1  0.72695300  0.04559300  0.36983400  1
  Mg  Mg46  1  0.37026200  0.98143000  0.33721000  1
  Mg  Mg47  1  0.56528000  0.17644900  0.43472000  1
  Mg  Mg48  1  0.35528600  0.16822000  0.49517300  1
  Mg  Mg49  1  0.50111800  0.81975800  0.40209600  1
  Mg  Mg50  1  0.90656300  0.64014700  0.38596500  1
  Mg  Mg51  1  0.11403500  0.93267600  0.38596500  1
  Mg  Mg52  1  0.85780900  0.88392100  0.43472000  1
  Mg  Mg53  1  0.84958000  0.67392700  0.49517300  1
  Mg  Mg54  1  0.29420600  0.61284600  0.36104100  1
  Mg  Mg55  1  0.70611700  0.53046400  0.44342400  1
  Mg  Mg56  1  0.53070200  0.84934200  0.46929800  1
  Mg  Mg57  1  0.32150700  0.22520400  0.38596500  1
  Mg  Mg58  1  0.61403500  0.43267600  0.38596500  1
  Mg  Mg59  1  0.37849000  0.19142400  0.27675700  1
  Mg  Mg60  1  0.52195300  0.33488700  0.32850600  1
  Mg  Mg61  1  0.01624700  0.84059400  0.32850600  1
  Mg  Mg62  1  0.87278400  0.69713100  0.27675700  1
  Mg  Mg63  1  0.69736800  0.01600900  0.30263200  1
