# generated using pymatgen
data_Mg5Ga11
_symmetry_space_group_name_H-M   'P 1'
_cell_length_a   7.14992847
_cell_length_b   7.14992865
_cell_length_c   43.98030700
_cell_angle_alpha   88.65072652
_cell_angle_beta   88.65072649
_cell_angle_gamma   76.00064847
_symmetry_Int_Tables_number   1
_chemical_formula_structural   Mg5Ga11
_chemical_formula_sum   'Mg20 Ga44'
_cell_volume   2180.58501334
_cell_formula_units_Z   4
loop_
 _symmetry_equiv_pos_site_id
 _symmetry_equiv_pos_as_xyz
  1  'x, y, z'
loop_
 _atom_site_type_symbol
 _atom_site_label
 _atom_site_symmetry_multiplicity
 _atom_site_fract_x
 _atom_site_fract_y
 _atom_site_fract_z
 _atom_site_occupancy
  Mg  Mg0  1  0.22829300  0.82634200  0.75166400  1
  Mg  Mg1  1  0.82634200  0.22829300  0.75166400  1
  Mg  Mg2  1  0.97707400  0.57512200  0.80190800  1
  Mg  Mg3  1  0.57512200  0.97707400  0.80190800  1
  Mg  Mg4  1  0.85329300  0.45134200  0.62666400  1
  Mg  Mg5  1  0.45134200  0.85329300  0.62666400  1
  Mg  Mg6  1  0.60207400  0.20012200  0.67690800  1
  Mg  Mg7  1  0.20012200  0.60207400  0.67690800  1
  Mg  Mg8  1  0.47829300  0.07634200  0.50166400  1
  Mg  Mg9  1  0.07634200  0.47829300  0.50166400  1
  Mg  Mg10  1  0.22707400  0.82512200  0.55190800  1
  Mg  Mg11  1  0.82512200  0.22707400  0.55190800  1
  Mg  Mg12  1  0.10329300  0.70134200  0.37666400  1
  Mg  Mg13  1  0.70134200  0.10329300  0.37666400  1
  Mg  Mg14  1  0.85207400  0.45012200  0.42690800  1
  Mg  Mg15  1  0.45012200  0.85207400  0.42690800  1
  Mg  Mg16  1  0.72829300  0.32634200  0.25166400  1
  Mg  Mg17  1  0.32634200  0.72829300  0.25166400  1
  Mg  Mg18  1  0.47707400  0.07512200  0.30190800  1
  Mg  Mg19  1  0.07512200  0.47707400  0.30190800  1
  Ga  Ga20  1  0.48738900  0.07930800  0.73733300  1
  Ga  Ga21  1  0.96832300  0.96832300  0.70033800  1
  Ga  Ga22  1  0.59837300  0.59837300  0.77432800  1
  Ga  Ga23  1  0.07930800  0.48738900  0.73733300  1
  Ga  Ga24  1  0.97993300  0.97993300  0.80286100  1
  Ga  Ga25  1  0.82348300  0.82348300  0.75071100  1
  Ga  Ga26  1  0.46009200  0.46009200  0.72823400  1
  Ga  Ga27  1  0.94102700  0.34910800  0.69123900  1
  Ga  Ga28  1  0.34910800  0.94102700  0.69123900  1
  Ga  Ga29  1  0.20504200  0.20504200  0.77924400  1
  Ga  Ga30  1  0.11238900  0.70430800  0.61233300  1
  Ga  Ga31  1  0.59332300  0.59332300  0.57533800  1
  Ga  Ga32  1  0.22337300  0.22337300  0.64932800  1
  Ga  Ga33  1  0.70430800  0.11238900  0.61233300  1
  Ga  Ga34  1  0.60493300  0.60493300  0.67786100  1
  Ga  Ga35  1  0.44848300  0.44848300  0.62571100  1
  Ga  Ga36  1  0.08509200  0.08509200  0.60323400  1
  Ga  Ga37  1  0.56602700  0.97410800  0.56623900  1
  Ga  Ga38  1  0.97410800  0.56602700  0.56623900  1
  Ga  Ga39  1  0.83004200  0.83004200  0.65424400  1
  Ga  Ga40  1  0.73738900  0.32930800  0.48733300  1
  Ga  Ga41  1  0.21832300  0.21832300  0.45033800  1
  Ga  Ga42  1  0.84837300  0.84837300  0.52432800  1
  Ga  Ga43  1  0.32930800  0.73738900  0.48733300  1
  Ga  Ga44  1  0.22993300  0.22993300  0.55286100  1
  Ga  Ga45  1  0.07348300  0.07348300  0.50071100  1
  Ga  Ga46  1  0.71009200  0.71009200  0.47823400  1
  Ga  Ga47  1  0.19102700  0.59910800  0.44123900  1
  Ga  Ga48  1  0.59910800  0.19102700  0.44123900  1
  Ga  Ga49  1  0.45504200  0.45504200  0.52924400  1
  Ga  Ga50  1  0.36238900  0.95430800  0.36233300  1
  Ga  Ga51  1  0.84332300  0.84332300  0.32533800  1
  Ga  Ga52  1  0.47337300  0.47337300  0.39932800  1
  Ga  Ga53  1  0.95430800  0.36238900  0.36233300  1
  Ga  Ga54  1  0.85493300  0.85493300  0.42786100  1
  Ga  Ga55  1  0.69848300  0.69848300  0.37571100  1
  Ga  Ga56  1  0.33509200  0.33509200  0.35323400  1
  Ga  Ga57  1  0.81602700  0.22410800  0.31623900  1
  Ga  Ga58  1  0.22410800  0.81602700  0.31623900  1
  Ga  Ga59  1  0.08004200  0.08004200  0.40424400  1
  Ga  Ga60  1  0.09837300  0.09837300  0.27432800  1
  Ga  Ga61  1  0.47993300  0.47993300  0.30286100  1
  Ga  Ga62  1  0.32348300  0.32348300  0.25071100  1
  Ga  Ga63  1  0.70504200  0.70504200  0.27924400  1
