# generated using pymatgen
data_Sr4Mg39
_symmetry_space_group_name_H-M   'P 1'
_cell_length_a   10.60291300
_cell_length_b   14.66206680
_cell_length_c   47.66603800
_cell_angle_alpha   92.42755603
_cell_angle_beta   90.00000000
_cell_angle_gamma   68.80296164
_symmetry_Int_Tables_number   1
_chemical_formula_structural   Sr4Mg39
_chemical_formula_sum   'Sr12 Mg117'
_cell_volume   6901.70350145
_cell_formula_units_Z   3
loop_
 _symmetry_equiv_pos_site_id
 _symmetry_equiv_pos_as_xyz
  1  'x, y, z'
loop_
 _atom_site_type_symbol
 _atom_site_label
 _atom_site_symmetry_multiplicity
 _atom_site_fract_x
 _atom_site_fract_y
 _atom_site_fract_z
 _atom_site_occupancy
  Sr  Sr0  1  0.44297500  0.11405000  0.32581500  1
  Sr  Sr1  1  0.15726100  0.68547900  0.30200500  1
  Sr  Sr2  1  0.72868900  0.54262100  0.34962400  1
  Sr  Sr3  1  0.87154600  0.25690700  0.27819500  1
  Sr  Sr4  1  0.15726100  0.68547900  0.46867200  1
  Sr  Sr5  1  0.87154600  0.25690700  0.44486200  1
  Sr  Sr6  1  0.44297500  0.11405000  0.49248100  1
  Sr  Sr7  1  0.58583200  0.82833600  0.42105300  1
  Sr  Sr8  1  0.87154600  0.25690700  0.61152900  1
  Sr  Sr9  1  0.58583200  0.82833600  0.58771900  1
  Sr  Sr10  1  0.15726100  0.68547900  0.63533800  1
  Sr  Sr11  1  0.30011800  0.39976400  0.56391000  1
  Mg  Mg12  1  0.15023900  0.69952200  0.22117600  1
  Mg  Mg13  1  0.00565600  0.48264800  0.29346700  1
  Mg  Mg14  1  0.51169600  0.48264800  0.29346700  1
  Mg  Mg15  1  0.21907900  0.05580200  0.26908300  1
  Mg  Mg16  1  0.05780300  0.88439400  0.35173400  1
  Mg  Mg17  1  0.62923100  0.74153700  0.23268600  1
  Mg  Mg18  1  0.54243300  0.91513400  0.27608600  1
  Mg  Mg19  1  0.25671900  0.48656300  0.25227600  1
  Mg  Mg20  1  0.44297500  0.11405000  0.24248100  1
  Mg  Mg21  1  0.94297500  0.61405000  0.24248100  1
  Mg  Mg22  1  0.44297500  0.61405000  0.24248100  1
  Mg  Mg23  1  0.30011800  0.89976400  0.31391000  1
  Mg  Mg24  1  0.80011800  0.89976400  0.31391000  1
  Mg  Mg25  1  0.30011800  0.39976400  0.31391000  1
  Mg  Mg26  1  0.51659100  0.27277900  0.27290500  1
  Mg  Mg27  1  0.88351100  0.83040600  0.25369600  1
  Mg  Mg28  1  0.50462600  0.69928000  0.29740400  1
  Mg  Mg29  1  0.09561000  0.10024800  0.33041500  1
  Mg  Mg30  1  0.00243900  0.39769400  0.23126700  1
  Mg  Mg31  1  0.38960500  0.52674900  0.35491500  1
  Mg  Mg32  1  0.79609400  0.69928000  0.29740400  1
  Mg  Mg33  1  0.08364500  0.52674900  0.35491500  1
  Mg  Mg34  1  0.28608300  0.83040600  0.25369600  1
  Mg  Mg35  1  0.59986700  0.39769400  0.23126700  1
  Mg  Mg36  1  0.21063000  0.27277900  0.27290500  1
  Mg  Mg37  1  0.80414200  0.10024800  0.33041500  1
  Mg  Mg38  1  0.66687100  0.17229800  0.21588000  1
  Mg  Mg39  1  0.59458000  0.31688100  0.33435200  1
  Mg  Mg40  1  0.73571100  0.52857800  0.26378700  1
  Mg  Mg41  1  0.01970000  0.96060100  0.28644600  1
  Mg  Mg42  1  0.16083100  0.17229800  0.21588000  1
  Mg  Mg43  1  0.72511900  0.05580200  0.26908300  1
  Mg  Mg44  1  0.58053600  0.83892800  0.34137400  1
  Mg  Mg45  1  0.08854000  0.31688100  0.33435200  1
  Mg  Mg46  1  0.86452500  0.27095100  0.36403300  1
  Mg  Mg47  1  0.71994200  0.05407600  0.43632400  1
  Mg  Mg48  1  0.22598200  0.05407600  0.43632400  1
  Mg  Mg49  1  0.93336500  0.62723100  0.41194000  1
  Mg  Mg50  1  0.77208900  0.45582300  0.49459100  1
  Mg  Mg51  1  0.34351700  0.31296600  0.37554300  1
  Mg  Mg52  1  0.25671900  0.48656300  0.41894300  1
  Mg  Mg53  1  0.97100400  0.05799100  0.39513300  1
  Mg  Mg54  1  0.15726100  0.68547900  0.38533800  1
  Mg  Mg55  1  0.65726100  0.18547900  0.38533800  1
  Mg  Mg56  1  0.15726100  0.18547900  0.38533800  1
  Mg  Mg57  1  0.01440400  0.47119300  0.45676700  1
  Mg  Mg58  1  0.51440400  0.47119300  0.45676700  1
  Mg  Mg59  1  0.01440400  0.97119300  0.45676700  1
  Mg  Mg60  1  0.23087600  0.84420800  0.41576200  1
  Mg  Mg61  1  0.59779700  0.40183500  0.39655300  1
  Mg  Mg62  1  0.21891200  0.27070900  0.44026200  1
  Mg  Mg63  1  0.80989500  0.67167700  0.47327200  1
  Mg  Mg64  1  0.71672500  0.96912200  0.37412400  1
  Mg  Mg65  1  0.10389100  0.09817800  0.49777200  1
  Mg  Mg66  1  0.51038000  0.27070900  0.44026200  1
  Mg  Mg67  1  0.79793100  0.09817800  0.49777200  1
  Mg  Mg68  1  0.00036900  0.40183500  0.39655300  1
  Mg  Mg69  1  0.31415300  0.96912200  0.37412400  1
  Mg  Mg70  1  0.92491600  0.84420800  0.41576200  1
  Mg  Mg71  1  0.51842800  0.67167700  0.47327200  1
  Mg  Mg72  1  0.38115700  0.74372600  0.35873700  1
  Mg  Mg73  1  0.30886500  0.88830900  0.47720900  1
  Mg  Mg74  1  0.44999700  0.10000600  0.40664400  1
  Mg  Mg75  1  0.73398500  0.53202900  0.42930300  1
  Mg  Mg76  1  0.87511700  0.74372600  0.35873700  1
  Mg  Mg77  1  0.43940500  0.62723100  0.41194000  1
  Mg  Mg78  1  0.29482200  0.41035600  0.48423100  1
  Mg  Mg79  1  0.80282500  0.88830900  0.47720900  1
  Mg  Mg80  1  0.57881000  0.84237900  0.50689000  1
  Mg  Mg81  1  0.43422800  0.62550500  0.57918200  1
  Mg  Mg82  1  0.94026800  0.62550500  0.57918200  1
  Mg  Mg83  1  0.64765000  0.19865900  0.55479700  1
  Mg  Mg84  1  0.48637400  0.02725100  0.63744800  1
  Mg  Mg85  1  0.05780300  0.88439400  0.51840100  1
  Mg  Mg86  1  0.97100400  0.05799100  0.56180000  1
  Mg  Mg87  1  0.68529000  0.62942000  0.53799000  1
  Mg  Mg88  1  0.87154600  0.25690700  0.52819500  1
  Mg  Mg89  1  0.37154600  0.75690700  0.52819500  1
  Mg  Mg90  1  0.87154600  0.75690700  0.52819500  1
  Mg  Mg91  1  0.72868900  0.04262100  0.59962400  1
  Mg  Mg92  1  0.22868900  0.04262100  0.59962400  1
  Mg  Mg93  1  0.72868900  0.54262100  0.59962400  1
  Mg  Mg94  1  0.94516200  0.41563600  0.55861900  1
  Mg  Mg95  1  0.31208300  0.97326300  0.53941000  1
  Mg  Mg96  1  0.93319700  0.84213700  0.58311900  1
  Mg  Mg97  1  0.52418100  0.24310500  0.61612900  1
  Mg  Mg98  1  0.43101000  0.54055100  0.51698100  1
  Mg  Mg99  1  0.81817700  0.66960700  0.64062900  1
  Mg  Mg100  1  0.22466500  0.84213700  0.58311900  1
  Mg  Mg101  1  0.51221700  0.66960700  0.64062900  1
  Mg  Mg102  1  0.71465400  0.97326300  0.53941000  1
  Mg  Mg103  1  0.02843900  0.54055100  0.51698100  1
  Mg  Mg104  1  0.63920200  0.41563600  0.55861900  1
  Mg  Mg105  1  0.23271300  0.24310500  0.61612900  1
  Mg  Mg106  1  0.09544300  0.31515500  0.50159400  1
  Mg  Mg107  1  0.02315100  0.45973800  0.62006700  1
  Mg  Mg108  1  0.16428200  0.67143500  0.54950100  1
  Mg  Mg109  1  0.44827100  0.10345800  0.57216000  1
  Mg  Mg110  1  0.58940200  0.31515500  0.50159400  1
  Mg  Mg111  1  0.15369000  0.19865900  0.55479700  1
  Mg  Mg112  1  0.00910800  0.98178500  0.62708800  1
  Mg  Mg113  1  0.51711100  0.45973800  0.62006700  1
  Mg  Mg114  1  0.29309600  0.41380800  0.64974700  1
  Mg  Mg115  1  0.36193600  0.77008800  0.69765400  1
  Mg  Mg116  1  0.77208900  0.45582300  0.66125800  1
  Mg  Mg117  1  0.39957600  0.20084900  0.68084800  1
  Mg  Mg118  1  0.58583200  0.82833600  0.67105300  1
  Mg  Mg119  1  0.08583200  0.32833600  0.67105300  1
  Mg  Mg120  1  0.58583200  0.32833600  0.67105300  1
  Mg  Mg121  1  0.02636800  0.54469200  0.68226700  1
  Mg  Mg122  1  0.14529600  0.11198000  0.65983800  1
  Mg  Mg123  1  0.42894000  0.54469200  0.68226700  1
  Mg  Mg124  1  0.74272400  0.11198000  0.65983800  1
  Mg  Mg125  1  0.80972800  0.88658400  0.64445100  1
  Mg  Mg126  1  0.87856800  0.24286400  0.69235800  1
  Mg  Mg127  1  0.30368800  0.88658400  0.64445100  1
  Mg  Mg128  1  0.86797600  0.77008800  0.69765400  1
