# generated using pymatgen
data_Sm2Mg
_symmetry_space_group_name_H-M   'P 1'
_cell_length_a   6.75892170
_cell_length_b   8.88868581
_cell_length_c   43.28172500
_cell_angle_alpha   91.06630092
_cell_angle_beta   92.20613179
_cell_angle_gamma   96.86865068
_symmetry_Int_Tables_number   1
_chemical_formula_structural   Sm2Mg
_chemical_formula_sum   'Sm36 Mg18'
_cell_volume   2578.99437797
_cell_formula_units_Z   18
loop_
 _symmetry_equiv_pos_site_id
 _symmetry_equiv_pos_as_xyz
  1  'x, y, z'
loop_
 _atom_site_type_symbol
 _atom_site_label
 _atom_site_symmetry_multiplicity
 _atom_site_fract_x
 _atom_site_fract_y
 _atom_site_fract_z
 _atom_site_occupancy
  Sm  Sm0  1  0.20405700  0.36845700  0.19005700  1
  Sm  Sm1  1  0.11328200  0.75572800  0.21275100  1
  Sm  Sm2  1  0.51022900  0.06011400  0.23851400  1
  Sm  Sm3  1  0.60100300  0.67284400  0.21582100  1
  Sm  Sm4  1  0.91834300  0.43988600  0.26148600  1
  Sm  Sm5  1  0.82756800  0.82715600  0.28417900  1
  Sm  Sm6  1  0.22451400  0.13154300  0.30994300  1
  Sm  Sm7  1  0.31528900  0.74427200  0.28724900  1
  Sm  Sm8  1  0.63262900  0.51131400  0.33291400  1
  Sm  Sm9  1  0.54185400  0.89858500  0.35560800  1
  Sm  Sm10  1  0.93880000  0.20297100  0.38137100  1
  Sm  Sm11  1  0.02957500  0.81570100  0.35867800  1
  Sm  Sm12  1  0.34691400  0.58274300  0.40434300  1
  Sm  Sm13  1  0.25614000  0.97001300  0.42703700  1
  Sm  Sm14  1  0.65308600  0.27440000  0.45280000  1
  Sm  Sm15  1  0.74386000  0.88712900  0.43010600  1
  Sm  Sm16  1  0.06120000  0.65417100  0.47577100  1
  Sm  Sm17  1  0.97042500  0.04144200  0.49846500  1
  Sm  Sm18  1  0.36737100  0.34582900  0.52422900  1
  Sm  Sm19  1  0.45814600  0.95855800  0.50153500  1
  Sm  Sm20  1  0.77548600  0.72560000  0.54720000  1
  Sm  Sm21  1  0.68471100  0.11287100  0.56989400  1
  Sm  Sm22  1  0.08165700  0.41725700  0.59565700  1
  Sm  Sm23  1  0.17243200  0.02998700  0.57296300  1
  Sm  Sm24  1  0.48977100  0.79702900  0.61862900  1
  Sm  Sm25  1  0.39899700  0.18429900  0.64132200  1
  Sm  Sm26  1  0.79594300  0.48868600  0.66708600  1
  Sm  Sm27  1  0.88671800  0.10141500  0.64439200  1
  Sm  Sm28  1  0.20405700  0.86845700  0.69005700  1
  Sm  Sm29  1  0.11328200  0.25572800  0.71275100  1
  Sm  Sm30  1  0.51022900  0.56011400  0.73851400  1
  Sm  Sm31  1  0.60100300  0.17284400  0.71582100  1
  Sm  Sm32  1  0.91834300  0.93988600  0.76148600  1
  Sm  Sm33  1  0.82756800  0.32715600  0.78417900  1
  Sm  Sm34  1  0.22451400  0.63154300  0.80994300  1
  Sm  Sm35  1  0.31528900  0.24427200  0.78724900  1
  Mg  Mg36  1  0.01621500  0.10052600  0.23701800  1
  Mg  Mg37  1  0.69807000  0.32804600  0.19155400  1
  Mg  Mg38  1  0.73050100  0.17195400  0.30844600  1
  Mg  Mg39  1  0.41235600  0.39947400  0.26298200  1
  Mg  Mg40  1  0.44478700  0.24338300  0.37987500  1
  Mg  Mg41  1  0.12664200  0.47090300  0.33441100  1
  Mg  Mg42  1  0.15907300  0.31481200  0.45130300  1
  Mg  Mg43  1  0.84092700  0.54233100  0.40584000  1
  Mg  Mg44  1  0.87335800  0.38624000  0.52273200  1
  Mg  Mg45  1  0.55521300  0.61376000  0.47726800  1
  Mg  Mg46  1  0.58764400  0.45766900  0.59416000  1
  Mg  Mg47  1  0.26949900  0.68518800  0.54869700  1
  Mg  Mg48  1  0.30193000  0.52909700  0.66558900  1
  Mg  Mg49  1  0.98378500  0.75661700  0.62012500  1
  Mg  Mg50  1  0.01621500  0.60052600  0.73701800  1
  Mg  Mg51  1  0.69807000  0.82804600  0.69155400  1
  Mg  Mg52  1  0.73050100  0.67195400  0.80844600  1
  Mg  Mg53  1  0.41235600  0.89947400  0.76298200  1
