# generated using pymatgen
data_Mg4Cd7
_symmetry_space_group_name_H-M   'P 1'
_cell_length_a   3.10433600
_cell_length_b   5.22123900
_cell_length_c   49.25120300
_cell_angle_alpha   90.00000000
_cell_angle_beta   90.00000000
_cell_angle_gamma   90.00000000
_symmetry_Int_Tables_number   1
_chemical_formula_structural   Mg4Cd7
_chemical_formula_sum   'Mg8 Cd14'
_cell_volume   798.28714827
_cell_formula_units_Z   2
loop_
 _symmetry_equiv_pos_site_id
 _symmetry_equiv_pos_as_xyz
  1  'x, y, z'
loop_
 _atom_site_type_symbol
 _atom_site_label
 _atom_site_symmetry_multiplicity
 _atom_site_fract_x
 _atom_site_fract_y
 _atom_site_fract_z
 _atom_site_occupancy
  Mg  Mg0  1  0.00000000  0.75000000  0.48096800  1
  Mg  Mg1  1  0.50000000  0.25000000  0.24125400  1
  Mg  Mg2  1  0.50000000  0.75000000  0.31430200  1
  Mg  Mg3  1  1.00000000  0.25000000  0.40792100  1
  Mg  Mg4  1  0.00000000  0.75000000  0.81430200  1
  Mg  Mg5  1  0.50000000  0.25000000  0.57458700  1
  Mg  Mg6  1  0.50000000  0.75000000  0.64763500  1
  Mg  Mg7  1  0.00000000  0.25000000  0.74125400  1
  Cd  Cd8  1  0.00000000  0.75000000  0.25893600  1
  Cd  Cd9  1  0.50000000  0.25000000  0.46328700  1
  Cd  Cd10  1  0.50000000  0.75000000  0.42560200  1
  Cd  Cd11  1  0.00000000  0.75000000  0.36987500  1
  Cd  Cd12  1  0.50000000  0.25000000  0.35234700  1
  Cd  Cd13  1  0.00000000  0.25000000  0.29662000  1
  Cd  Cd14  1  0.00000000  0.75000000  0.59226900  1
  Cd  Cd15  1  0.50000000  0.75000000  0.53654100  1
  Cd  Cd16  1  0.00000000  0.25000000  0.51901400  1
  Cd  Cd17  1  0.50000000  0.25000000  0.79662000  1
  Cd  Cd18  1  0.50000000  0.75000000  0.75893600  1
  Cd  Cd19  1  0.00000000  0.75000000  0.70320800  1
  Cd  Cd20  1  0.50000000  0.25000000  0.68568100  1
  Cd  Cd21  1  1.00000000  0.25000000  0.62995300  1
