# generated using pymatgen
data_LaMg10
_symmetry_space_group_name_H-M   'P 1'
_cell_length_a   10.38875242
_cell_length_b   10.09623600
_cell_length_c   45.28352000
_cell_angle_alpha   90.00000000
_cell_angle_beta   96.58677761
_cell_angle_gamma   90.00000000
_symmetry_Int_Tables_number   1
_chemical_formula_structural   LaMg10
_chemical_formula_sum   'La10 Mg100'
_cell_volume   4718.31467942
_cell_formula_units_Z   10
loop_
 _symmetry_equiv_pos_site_id
 _symmetry_equiv_pos_as_xyz
  1  'x, y, z'
loop_
 _atom_site_type_symbol
 _atom_site_label
 _atom_site_symmetry_multiplicity
 _atom_site_fract_x
 _atom_site_fract_y
 _atom_site_fract_z
 _atom_site_occupancy
  La  La0  1  0.54023200  0.75000000  0.25614000  1
  La  La1  1  0.07356500  0.25000000  0.32280700  1
  La  La2  1  0.60689900  0.25000000  0.38947400  1
  La  La3  1  0.60689900  0.75000000  0.38947400  1
  La  La4  1  0.14023200  0.75000000  0.45614000  1
  La  La5  1  0.67356500  0.25000000  0.52280700  1
  La  La6  1  0.20689900  0.25000000  0.58947400  1
  La  La7  1  0.20689900  0.75000000  0.58947400  1
  La  La8  1  0.74023200  0.75000000  0.65614000  1
  La  La9  1  0.27356500  0.25000000  0.72280700  1
  Mg  Mg10  1  0.34734200  0.02089500  0.35702900  1
  Mg  Mg11  1  0.03934300  0.02089500  0.25436300  1
  Mg  Mg12  1  0.83401100  0.02089500  0.35702900  1
  Mg  Mg13  1  0.77978700  0.52089500  0.22191800  1
  Mg  Mg14  1  0.07356500  0.59833400  0.32280700  1
  Mg  Mg15  1  0.54023200  0.09833400  0.25614000  1
  Mg  Mg16  1  0.54023200  0.40166600  0.25614000  1
  Mg  Mg17  1  0.07356500  0.90166600  0.32280700  1
  Mg  Mg18  1  0.10689900  0.50000000  0.38947400  1
  Mg  Mg19  1  0.80689900  0.00000000  0.28947400  1
  Mg  Mg20  1  0.30689900  0.00000000  0.28947400  1
  Mg  Mg21  1  0.30689900  0.50000000  0.28947400  1
  Mg  Mg22  1  0.80689900  0.50000000  0.28947400  1
  Mg  Mg23  1  0.10689900  0.00000000  0.38947400  1
  Mg  Mg24  1  0.25773400  0.75000000  0.38257500  1
  Mg  Mg25  1  0.84101800  0.25000000  0.25516700  1
  Mg  Mg26  1  0.42361500  0.25000000  0.31688100  1
  Mg  Mg27  1  0.19018300  0.75000000  0.26206600  1
  Mg  Mg28  1  0.77277900  0.75000000  0.32378000  1
  Mg  Mg29  1  0.66463200  0.25000000  0.19637200  1
  Mg  Mg30  1  0.71759000  0.25000000  0.31688100  1
  Mg  Mg31  1  0.35606400  0.25000000  0.19637200  1
  Mg  Mg32  1  0.23847300  0.25000000  0.25516700  1
  Mg  Mg33  1  0.37532400  0.75000000  0.32378000  1
  Mg  Mg34  1  0.94916500  0.75000000  0.38257500  1
  Mg  Mg35  1  0.89620700  0.75000000  0.26206600  1
  Mg  Mg36  1  0.03934300  0.47910500  0.25436300  1
  Mg  Mg37  1  0.26645500  0.97910500  0.22191800  1
  Mg  Mg38  1  0.77978700  0.97910500  0.22191800  1
  Mg  Mg39  1  0.83401100  0.47910500  0.35702900  1
  Mg  Mg40  1  0.34734200  0.47910500  0.35702900  1
  Mg  Mg41  1  0.57445400  0.52089500  0.32458500  1
  Mg  Mg42  1  0.26645500  0.52089500  0.22191800  1
  Mg  Mg43  1  0.57445400  0.97910500  0.32458500  1
  Mg  Mg44  1  0.94734200  0.02089500  0.55702900  1
  Mg  Mg45  1  0.63934300  0.02089500  0.45436300  1
  Mg  Mg46  1  0.43401100  0.02089500  0.55702900  1
  Mg  Mg47  1  0.37978700  0.52089500  0.42191800  1
  Mg  Mg48  1  0.67356500  0.59833400  0.52280700  1
  Mg  Mg49  1  0.14023200  0.09833400  0.45614000  1
  Mg  Mg50  1  0.14023200  0.40166600  0.45614000  1
  Mg  Mg51  1  0.67356500  0.90166600  0.52280700  1
  Mg  Mg52  1  0.70689900  0.50000000  0.58947400  1
  Mg  Mg53  1  0.40689900  0.00000000  0.48947400  1
  Mg  Mg54  1  0.90689900  0.00000000  0.48947400  1
  Mg  Mg55  1  0.90689900  0.50000000  0.48947400  1
  Mg  Mg56  1  0.40689900  0.50000000  0.48947400  1
  Mg  Mg57  1  0.70689900  0.00000000  0.58947400  1
  Mg  Mg58  1  0.85773400  0.75000000  0.58257500  1
  Mg  Mg59  1  0.44101800  0.25000000  0.45516700  1
  Mg  Mg60  1  0.02361500  0.25000000  0.51688100  1
  Mg  Mg61  1  0.79018300  0.75000000  0.46206600  1
  Mg  Mg62  1  0.37277900  0.75000000  0.52378000  1
  Mg  Mg63  1  0.26463200  0.25000000  0.39637200  1
  Mg  Mg64  1  0.31759000  0.25000000  0.51688100  1
  Mg  Mg65  1  0.95606400  0.25000000  0.39637200  1
  Mg  Mg66  1  0.83847300  0.25000000  0.45516700  1
  Mg  Mg67  1  0.97532400  0.75000000  0.52378000  1
  Mg  Mg68  1  0.54916500  0.75000000  0.58257500  1
  Mg  Mg69  1  0.49620700  0.75000000  0.46206600  1
  Mg  Mg70  1  0.63934300  0.47910500  0.45436300  1
  Mg  Mg71  1  0.86645500  0.97910500  0.42191800  1
  Mg  Mg72  1  0.37978700  0.97910500  0.42191800  1
  Mg  Mg73  1  0.43401100  0.47910500  0.55702900  1
  Mg  Mg74  1  0.94734200  0.47910500  0.55702900  1
  Mg  Mg75  1  0.17445400  0.52089500  0.52458500  1
  Mg  Mg76  1  0.86645500  0.52089500  0.42191800  1
  Mg  Mg77  1  0.17445400  0.97910500  0.52458500  1
  Mg  Mg78  1  0.54734200  0.02089500  0.75702900  1
  Mg  Mg79  1  0.23934300  0.02089500  0.65436300  1
  Mg  Mg80  1  0.03401100  0.02089500  0.75702900  1
  Mg  Mg81  1  0.97978700  0.52089500  0.62191800  1
  Mg  Mg82  1  0.27356500  0.59833400  0.72280700  1
  Mg  Mg83  1  0.74023200  0.09833400  0.65614000  1
  Mg  Mg84  1  0.74023200  0.40166600  0.65614000  1
  Mg  Mg85  1  0.27356500  0.90166600  0.72280700  1
  Mg  Mg86  1  0.00689900  0.00000000  0.68947400  1
  Mg  Mg87  1  0.50689900  0.00000000  0.68947400  1
  Mg  Mg88  1  0.50689900  0.50000000  0.68947400  1
  Mg  Mg89  1  0.00689900  0.50000000  0.68947400  1
  Mg  Mg90  1  0.45773400  0.75000000  0.78257500  1
  Mg  Mg91  1  0.04101800  0.25000000  0.65516700  1
  Mg  Mg92  1  0.62361500  0.25000000  0.71688100  1
  Mg  Mg93  1  0.39018300  0.75000000  0.66206600  1
  Mg  Mg94  1  0.97277900  0.75000000  0.72378000  1
  Mg  Mg95  1  0.86463200  0.25000000  0.59637200  1
  Mg  Mg96  1  0.91759000  0.25000000  0.71688100  1
  Mg  Mg97  1  0.55606400  0.25000000  0.59637200  1
  Mg  Mg98  1  0.43847300  0.25000000  0.65516700  1
  Mg  Mg99  1  0.57532400  0.75000000  0.72378000  1
  Mg  Mg100  1  0.14916500  0.75000000  0.78257500  1
  Mg  Mg101  1  0.09620700  0.75000000  0.66206600  1
  Mg  Mg102  1  0.23934300  0.47910500  0.65436300  1
  Mg  Mg103  1  0.46645500  0.97910500  0.62191800  1
  Mg  Mg104  1  0.97978700  0.97910500  0.62191800  1
  Mg  Mg105  1  0.03401100  0.47910500  0.75702900  1
  Mg  Mg106  1  0.54734200  0.47910500  0.75702900  1
  Mg  Mg107  1  0.77445400  0.52089500  0.72458500  1
  Mg  Mg108  1  0.46645500  0.52089500  0.62191800  1
  Mg  Mg109  1  0.77445400  0.97910500  0.72458500  1
