# generated using pymatgen
data_Mg9Cd20
_symmetry_space_group_name_H-M   'P 1'
_cell_length_a   6.07439151
_cell_length_b   8.35399647
_cell_length_c   42.16682800
_cell_angle_alpha   91.94696428
_cell_angle_beta   90.39794456
_cell_angle_gamma   95.44863217
_symmetry_Int_Tables_number   1
_chemical_formula_structural   Mg9Cd20
_chemical_formula_sum   'Mg18 Cd40'
_cell_volume   2128.76541892
_cell_formula_units_Z   2
loop_
 _symmetry_equiv_pos_site_id
 _symmetry_equiv_pos_as_xyz
  1  'x, y, z'
loop_
 _atom_site_type_symbol
 _atom_site_label
 _atom_site_symmetry_multiplicity
 _atom_site_fract_x
 _atom_site_fract_y
 _atom_site_fract_z
 _atom_site_occupancy
  Mg  Mg0  1  0.00663100  0.46750300  0.24836000  1
  Mg  Mg1  1  0.57684500  0.01166400  0.23080700  1
  Mg  Mg2  1  0.75663100  0.53000300  0.31086000  1
  Mg  Mg3  1  0.32684500  0.07416400  0.29330700  1
  Mg  Mg4  1  0.50663100  0.59250300  0.37336000  1
  Mg  Mg5  1  0.07684500  0.13666400  0.35580700  1
  Mg  Mg6  1  0.25663100  0.65500300  0.43586000  1
  Mg  Mg7  1  0.82684500  0.19916400  0.41830700  1
  Mg  Mg8  1  0.00663100  0.71750300  0.49836000  1
  Mg  Mg9  1  0.57684500  0.26166400  0.48080700  1
  Mg  Mg10  1  0.75663100  0.78000300  0.56086000  1
  Mg  Mg11  1  0.32684500  0.32416400  0.54330700  1
  Mg  Mg12  1  0.50663100  0.84250300  0.62336000  1
  Mg  Mg13  1  0.07684500  0.38666400  0.60580700  1
  Mg  Mg14  1  0.25663100  0.90500300  0.68586000  1
  Mg  Mg15  1  0.82684500  0.44916400  0.66830700  1
  Mg  Mg16  1  0.00663100  0.96750300  0.74836000  1
  Mg  Mg17  1  0.57684500  0.51166400  0.73080700  1
  Cd  Cd18  1  0.09010600  0.11443800  0.22749100  1
  Cd  Cd19  1  0.17331100  0.75927200  0.20669000  1
  Cd  Cd20  1  0.66016500  0.65739400  0.20997700  1
  Cd  Cd21  1  0.74336900  0.30222900  0.18917500  1
  Cd  Cd22  1  0.84010600  0.17693800  0.28999100  1
  Cd  Cd23  1  0.92331100  0.82177200  0.26919000  1
  Cd  Cd24  1  0.41016500  0.71989400  0.27247700  1
  Cd  Cd25  1  0.49336900  0.36472900  0.25167500  1
  Cd  Cd26  1  0.59010600  0.23943800  0.35249100  1
  Cd  Cd27  1  0.67331100  0.88427200  0.33169000  1
  Cd  Cd28  1  0.16016500  0.78239400  0.33497700  1
  Cd  Cd29  1  0.24336900  0.42722900  0.31417500  1
  Cd  Cd30  1  0.34010600  0.30193800  0.41499100  1
  Cd  Cd31  1  0.42331100  0.94677200  0.39419000  1
  Cd  Cd32  1  0.91016500  0.84489400  0.39747700  1
  Cd  Cd33  1  0.99336900  0.48972900  0.37667500  1
  Cd  Cd34  1  0.09010600  0.36443800  0.47749100  1
  Cd  Cd35  1  0.17331100  0.00927200  0.45669000  1
  Cd  Cd36  1  0.66016500  0.90739400  0.45997700  1
  Cd  Cd37  1  0.74336900  0.55222900  0.43917500  1
  Cd  Cd38  1  0.84010600  0.42693800  0.53999100  1
  Cd  Cd39  1  0.92331100  0.07177200  0.51919000  1
  Cd  Cd40  1  0.41016500  0.96989400  0.52247700  1
  Cd  Cd41  1  0.49336900  0.61472900  0.50167500  1
  Cd  Cd42  1  0.59010600  0.48943800  0.60249100  1
  Cd  Cd43  1  0.67331100  0.13427200  0.58169000  1
  Cd  Cd44  1  0.16016500  0.03239400  0.58497700  1
  Cd  Cd45  1  0.24336900  0.67722900  0.56417500  1
  Cd  Cd46  1  0.34010600  0.55193800  0.66499100  1
  Cd  Cd47  1  0.42331100  0.19677200  0.64419000  1
  Cd  Cd48  1  0.91016500  0.09489400  0.64747700  1
  Cd  Cd49  1  0.99336900  0.73972900  0.62667500  1
  Cd  Cd50  1  0.09010600  0.61443800  0.72749100  1
  Cd  Cd51  1  0.17331100  0.25927200  0.70669000  1
  Cd  Cd52  1  0.66016500  0.15739400  0.70997700  1
  Cd  Cd53  1  0.74336900  0.80222900  0.68917500  1
  Cd  Cd54  1  0.84010600  0.67693800  0.78999100  1
  Cd  Cd55  1  0.92331100  0.32177200  0.76919000  1
  Cd  Cd56  1  0.41016500  0.21989400  0.77247700  1
  Cd  Cd57  1  0.49336900  0.86472900  0.75167500  1
