# generated using pymatgen
data_Mg15Zn26
_symmetry_space_group_name_H-M   'P 1'
_cell_length_a   5.07402237
_cell_length_b   17.20699092
_cell_length_c   54.58155700
_cell_angle_alpha   87.89733091
_cell_angle_beta   92.22235669
_cell_angle_gamma   98.42726965
_symmetry_Int_Tables_number   1
_chemical_formula_structural   Mg15Zn26
_chemical_formula_sum   'Mg60 Zn104'
_cell_volume   4708.12472958
_cell_formula_units_Z   4
loop_
 _symmetry_equiv_pos_site_id
 _symmetry_equiv_pos_as_xyz
  1  'x, y, z'
loop_
 _atom_site_type_symbol
 _atom_site_label
 _atom_site_symmetry_multiplicity
 _atom_site_fract_x
 _atom_site_fract_y
 _atom_site_fract_z
 _atom_site_occupancy
  Mg  Mg0  1  0.49283000  0.36291800  0.33198100  1
  Mg  Mg1  1  0.43125300  0.34666400  0.23065600  1
  Mg  Mg2  1  0.14993700  0.74711000  0.25032600  1
  Mg  Mg3  1  0.94444100  0.27501200  0.31632700  1
  Mg  Mg4  1  0.98831000  0.45339200  0.22838500  1
  Mg  Mg5  1  0.52426300  0.35688000  0.39307900  1
  Mg  Mg6  1  0.06629000  0.56907200  0.27342000  1
  Mg  Mg7  1  0.85314700  0.12981200  0.28730900  1
  Mg  Mg8  1  0.56972800  0.53935600  0.30838200  1
  Mg  Mg9  1  0.80927700  0.95143300  0.37525100  1
  Mg  Mg10  1  0.64765100  0.65771400  0.35331100  1
  Mg  Mg11  1  0.22786000  0.86546800  0.29525400  1
  Mg  Mg12  1  0.41232800  0.25402200  0.28007900  1
  Mg  Mg13  1  0.64377800  0.77907100  0.21573300  1
  Mg  Mg14  1  0.15381000  0.62575300  0.38790300  1
  Mg  Mg15  1  0.73129800  0.83575300  0.33021600  1
  Mg  Mg16  1  0.30475800  0.04190700  0.27165500  1
  Mg  Mg17  1  0.27332400  0.04794500  0.21055800  1
  Mg  Mg18  1  0.36633500  0.05816100  0.37298000  1
  Mg  Mg19  1  0.38526000  0.15080300  0.32355800  1
  Mg  Mg20  1  0.29283000  0.76291800  0.53198100  1
  Mg  Mg21  1  0.23125300  0.74666400  0.43065600  1
  Mg  Mg22  1  0.94993700  0.14711000  0.45032600  1
  Mg  Mg23  1  0.74444100  0.67501200  0.51632700  1
  Mg  Mg24  1  0.78831000  0.85339200  0.42838500  1
  Mg  Mg25  1  0.32426300  0.75688000  0.59307900  1
  Mg  Mg26  1  0.86629000  0.96907200  0.47342000  1
  Mg  Mg27  1  0.65314700  0.52981200  0.48730900  1
  Mg  Mg28  1  0.36972800  0.93935600  0.50838200  1
  Mg  Mg29  1  0.60927700  0.35143300  0.57525100  1
  Mg  Mg30  1  0.44765100  0.05771400  0.55331100  1
  Mg  Mg31  1  0.02786000  0.26546800  0.49525400  1
  Mg  Mg32  1  0.21232800  0.65402200  0.48007900  1
  Mg  Mg33  1  0.44377800  0.17907100  0.41573300  1
  Mg  Mg34  1  0.95381000  0.02575300  0.58790300  1
  Mg  Mg35  1  0.53129800  0.23575300  0.53021600  1
  Mg  Mg36  1  0.10475800  0.44190700  0.47165500  1
  Mg  Mg37  1  0.07332400  0.44794500  0.41055800  1
  Mg  Mg38  1  0.16633500  0.45816100  0.57298000  1
  Mg  Mg39  1  0.18526000  0.55080300  0.52355800  1
  Mg  Mg40  1  0.09283000  0.16291800  0.73198100  1
  Mg  Mg41  1  0.03125300  0.14666400  0.63065600  1
  Mg  Mg42  1  0.74993700  0.54711000  0.65032600  1
  Mg  Mg43  1  0.54444100  0.07501200  0.71632700  1
  Mg  Mg44  1  0.58831000  0.25339200  0.62838500  1
  Mg  Mg45  1  0.12426300  0.15688000  0.79307900  1
  Mg  Mg46  1  0.66629000  0.36907200  0.67342000  1
  Mg  Mg47  1  0.45314700  0.92981200  0.68730900  1
  Mg  Mg48  1  0.16972800  0.33935600  0.70838200  1
  Mg  Mg49  1  0.40927700  0.75143300  0.77525100  1
  Mg  Mg50  1  0.24765100  0.45771400  0.75331100  1
  Mg  Mg51  1  0.82786000  0.66546800  0.69525400  1
  Mg  Mg52  1  0.01232800  0.05402200  0.68007900  1
  Mg  Mg53  1  0.24377800  0.57907100  0.61573300  1
  Mg  Mg54  1  0.75381000  0.42575300  0.78790300  1
  Mg  Mg55  1  0.33129800  0.63575300  0.73021600  1
  Mg  Mg56  1  0.90475800  0.84190700  0.67165500  1
  Mg  Mg57  1  0.87332400  0.84794500  0.61055800  1
  Mg  Mg58  1  0.96633500  0.85816100  0.77298000  1
  Mg  Mg59  1  0.98526000  0.95080300  0.72355800  1
  Zn  Zn60  1  0.52147300  0.50735600  0.25043500  1
  Zn  Zn61  1  0.92385900  0.29767700  0.25814400  1
  Zn  Zn62  1  0.11565900  0.59926500  0.33167100  1
  Zn  Zn63  1  0.55510500  0.99553300  0.32253400  1
  Zn  Zn64  1  0.97502900  0.78492800  0.38145800  1
  Zn  Zn65  1  0.73793900  0.40838700  0.28004000  1
  Zn  Zn66  1  0.89879400  0.70241200  0.30181800  1
  Zn  Zn67  1  0.27611500  0.89746800  0.35320100  1
  Zn  Zn68  1  0.61452900  0.53468200  0.39940600  1
  Zn  Zn69  1  0.31628500  0.62011500  0.22223100  1
  Zn  Zn70  1  0.82122800  0.49537700  0.36053900  1
  Zn  Zn71  1  0.00763600  0.36097000  0.36269500  1
  Zn  Zn72  1  0.60704700  0.65739600  0.26251000  1
  Zn  Zn73  1  0.90813200  0.11831100  0.39357900  1
  Zn  Zn74  1  0.87372800  0.10714800  0.34549200  1
  Zn  Zn75  1  0.18305900  0.87014300  0.20423000  1
  Zn  Zn76  1  0.20152600  0.22730000  0.36409000  1
  Zn  Zn77  1  0.48130300  0.78470900  0.38140500  1
  Zn  Zn78  1  0.05964800  0.99643800  0.32359700  1
  Zn  Zn79  1  0.19054000  0.74742800  0.34112700  1
  Zn  Zn80  1  0.59606100  0.17752500  0.23954600  1
  Zn  Zn81  1  0.82255900  0.61989700  0.22217800  1
  Zn  Zn82  1  0.39879400  0.70241200  0.30181800  1
  Zn  Zn83  1  0.02719800  0.45284000  0.31930100  1
  Zn  Zn84  1  0.32563700  0.49566400  0.36094500  1
  Zn  Zn85  1  0.68769800  0.22733400  0.36319800  1
  Zn  Zn86  1  0.77038900  0.95198500  0.28433600  1
  Zn  Zn87  1  0.10989000  0.17749100  0.24043800  1
  Zn  Zn88  1  0.88945500  0.28651300  0.21005700  1
  Zn  Zn89  1  0.47195100  0.90916100  0.24269100  1
  Zn  Zn90  1  0.24248300  0.40929100  0.28110200  1
  Zn  Zn91  1  0.97636000  0.90944700  0.24309800  1
  Zn  Zn92  1  0.78995200  0.04385500  0.24094100  1
  Zn  Zn93  1  0.68192800  0.80555900  0.27196500  1
  Zn  Zn94  1  0.32147300  0.90735600  0.45043500  1
  Zn  Zn95  1  0.72385900  0.69767700  0.45814400  1
  Zn  Zn96  1  0.91565900  0.99926500  0.53167100  1
  Zn  Zn97  1  0.35510500  0.39553300  0.52253400  1
  Zn  Zn98  1  0.77502900  0.18492800  0.58145800  1
  Zn  Zn99  1  0.53793900  0.80838700  0.48004000  1
  Zn  Zn100  1  0.69879400  0.10241200  0.50181800  1
  Zn  Zn101  1  0.07611500  0.29746800  0.55320100  1
  Zn  Zn102  1  0.41452900  0.93468200  0.59940600  1
  Zn  Zn103  1  0.11628500  0.02011500  0.42223100  1
  Zn  Zn104  1  0.62122800  0.89537700  0.56053900  1
  Zn  Zn105  1  0.80763600  0.76097000  0.56269500  1
  Zn  Zn106  1  0.40704700  0.05739600  0.46251000  1
  Zn  Zn107  1  0.70813200  0.51831100  0.59357900  1
  Zn  Zn108  1  0.67372800  0.50714800  0.54549200  1
  Zn  Zn109  1  0.98305900  0.27014300  0.40423000  1
  Zn  Zn110  1  0.00152600  0.62730000  0.56409000  1
  Zn  Zn111  1  0.28130300  0.18470900  0.58140500  1
  Zn  Zn112  1  0.85964800  0.39643800  0.52359700  1
  Zn  Zn113  1  0.99054000  0.14742800  0.54112700  1
  Zn  Zn114  1  0.39606100  0.57752500  0.43954600  1
  Zn  Zn115  1  0.62255900  0.01989700  0.42217800  1
  Zn  Zn116  1  0.19879400  0.10241200  0.50181800  1
  Zn  Zn117  1  0.82719800  0.85284000  0.51930100  1
  Zn  Zn118  1  0.12563700  0.89566400  0.56094500  1
  Zn  Zn119  1  0.48769800  0.62733400  0.56319800  1
  Zn  Zn120  1  0.57038900  0.35198500  0.48433600  1
  Zn  Zn121  1  0.90989000  0.57749100  0.44043800  1
  Zn  Zn122  1  0.68945500  0.68651300  0.41005700  1
  Zn  Zn123  1  0.27195100  0.30916100  0.44269100  1
  Zn  Zn124  1  0.04248300  0.80929100  0.48110200  1
  Zn  Zn125  1  0.29879400  0.90241200  0.40181800  1
  Zn  Zn126  1  0.77636000  0.30944700  0.44309800  1
  Zn  Zn127  1  0.58995200  0.44385500  0.44094100  1
  Zn  Zn128  1  0.48192800  0.20555900  0.47196500  1
  Zn  Zn129  1  0.12147300  0.30735600  0.65043500  1
  Zn  Zn130  1  0.52385900  0.09767700  0.65814400  1
  Zn  Zn131  1  0.71565900  0.39926500  0.73167100  1
  Zn  Zn132  1  0.15510500  0.79553300  0.72253400  1
  Zn  Zn133  1  0.57502900  0.58492800  0.78145800  1
  Zn  Zn134  1  0.33793900  0.20838700  0.68004000  1
  Zn  Zn135  1  0.49879400  0.50241200  0.70181800  1
  Zn  Zn136  1  0.87611500  0.69746800  0.75320100  1
  Zn  Zn137  1  0.21452900  0.33468200  0.79940600  1
  Zn  Zn138  1  0.91628500  0.42011500  0.62223100  1
  Zn  Zn139  1  0.42122800  0.29537700  0.76053900  1
  Zn  Zn140  1  0.60763600  0.16097000  0.76269500  1
  Zn  Zn141  1  0.20704700  0.45739600  0.66251000  1
  Zn  Zn142  1  0.50813200  0.91831100  0.79357900  1
  Zn  Zn143  1  0.47372800  0.90714800  0.74549200  1
  Zn  Zn144  1  0.78305900  0.67014300  0.60423000  1
  Zn  Zn145  1  0.80152600  0.02730000  0.76409000  1
  Zn  Zn146  1  0.08130300  0.58470900  0.78140500  1
  Zn  Zn147  1  0.65964800  0.79643800  0.72359700  1
  Zn  Zn148  1  0.79054000  0.54742800  0.74112700  1
  Zn  Zn149  1  0.19606100  0.97752500  0.63954600  1
  Zn  Zn150  1  0.42255900  0.41989700  0.62217800  1
  Zn  Zn151  1  0.99879400  0.50241200  0.70181800  1
  Zn  Zn152  1  0.62719800  0.25284000  0.71930100  1
  Zn  Zn153  1  0.92563700  0.29566400  0.76094500  1
  Zn  Zn154  1  0.28769800  0.02733400  0.76319800  1
  Zn  Zn155  1  0.37038900  0.75198500  0.68433600  1
  Zn  Zn156  1  0.70989000  0.97749100  0.64043800  1
  Zn  Zn157  1  0.48945500  0.08651300  0.61005700  1
  Zn  Zn158  1  0.07195100  0.70916100  0.64269100  1
  Zn  Zn159  1  0.84248300  0.20929100  0.68110200  1
  Zn  Zn160  1  0.09879400  0.30241200  0.60181800  1
  Zn  Zn161  1  0.57636000  0.70944700  0.64309800  1
  Zn  Zn162  1  0.38995200  0.84385500  0.64094100  1
  Zn  Zn163  1  0.28192800  0.60555900  0.67196500  1
