# generated using pymatgen
data_MgCd2
_symmetry_space_group_name_H-M   'P 1'
_cell_length_a   6.07439166
_cell_length_b   16.41706800
_cell_length_c   42.70708300
_cell_angle_alpha   90.00000000
_cell_angle_beta   91.45727575
_cell_angle_gamma   90.00000000
_symmetry_Int_Tables_number   1
_chemical_formula_structural   MgCd2
_chemical_formula_sum   'Mg40 Cd80'
_cell_volume   4257.53090074
_cell_formula_units_Z   40
loop_
 _symmetry_equiv_pos_site_id
 _symmetry_equiv_pos_as_xyz
  1  'x, y, z'
loop_
 _atom_site_type_symbol
 _atom_site_label
 _atom_site_symmetry_multiplicity
 _atom_site_fract_x
 _atom_site_fract_y
 _atom_site_fract_z
 _atom_site_occupancy
  Mg  Mg0  1  0.18750000  0.89042900  0.20312500  1
  Mg  Mg1  1  0.68750000  0.60957100  0.20312500  1
  Mg  Mg2  1  0.06250000  0.39042900  0.23437500  1
  Mg  Mg3  1  0.56250000  0.10957100  0.23437500  1
  Mg  Mg4  1  0.93750000  0.89042900  0.26562500  1
  Mg  Mg5  1  0.43750000  0.60957100  0.26562500  1
  Mg  Mg6  1  0.81250000  0.39042900  0.29687500  1
  Mg  Mg7  1  0.31250000  0.10957100  0.29687500  1
  Mg  Mg8  1  0.68750000  0.89042900  0.32812500  1
  Mg  Mg9  1  0.18750000  0.60957100  0.32812500  1
  Mg  Mg10  1  0.56250000  0.39042900  0.35937500  1
  Mg  Mg11  1  0.06250000  0.10957100  0.35937500  1
  Mg  Mg12  1  0.43750000  0.89042900  0.39062500  1
  Mg  Mg13  1  0.93750000  0.60957100  0.39062500  1
  Mg  Mg14  1  0.31250000  0.39042900  0.42187500  1
  Mg  Mg15  1  0.81250000  0.10957100  0.42187500  1
  Mg  Mg16  1  0.18750000  0.89042900  0.45312500  1
  Mg  Mg17  1  0.68750000  0.60957100  0.45312500  1
  Mg  Mg18  1  0.06250000  0.39042900  0.48437500  1
  Mg  Mg19  1  0.56250000  0.10957100  0.48437500  1
  Mg  Mg20  1  0.93750000  0.89042900  0.51562500  1
  Mg  Mg21  1  0.43750000  0.60957100  0.51562500  1
  Mg  Mg22  1  0.81250000  0.39042900  0.54687500  1
  Mg  Mg23  1  0.31250000  0.10957100  0.54687500  1
  Mg  Mg24  1  0.68750000  0.89042900  0.57812500  1
  Mg  Mg25  1  0.18750000  0.60957100  0.57812500  1
  Mg  Mg26  1  0.56250000  0.39042900  0.60937500  1
  Mg  Mg27  1  0.06250000  0.10957100  0.60937500  1
  Mg  Mg28  1  0.43750000  0.89042900  0.64062500  1
  Mg  Mg29  1  0.93750000  0.60957100  0.64062500  1
  Mg  Mg30  1  0.31250000  0.39042900  0.67187500  1
  Mg  Mg31  1  0.81250000  0.10957100  0.67187500  1
  Mg  Mg32  1  0.18750000  0.89042900  0.70312500  1
  Mg  Mg33  1  0.68750000  0.60957100  0.70312500  1
  Mg  Mg34  1  0.06250000  0.39042900  0.73437500  1
  Mg  Mg35  1  0.56250000  0.10957100  0.73437500  1
  Mg  Mg36  1  0.93750000  0.89042900  0.76562500  1
  Mg  Mg37  1  0.43750000  0.60957100  0.76562500  1
  Mg  Mg38  1  0.81250000  0.39042900  0.79687500  1
  Mg  Mg39  1  0.31250000  0.10957100  0.79687500  1
  Cd  Cd40  1  0.18750000  0.55652700  0.20312500  1
  Cd  Cd41  1  0.06250000  0.72370900  0.23437500  1
  Cd  Cd42  1  0.56250000  0.77629100  0.23437500  1
  Cd  Cd43  1  0.68750000  0.94347300  0.20312500  1
  Cd  Cd44  1  0.06250000  0.05652700  0.23437500  1
  Cd  Cd45  1  0.18750000  0.22370900  0.20312500  1
  Cd  Cd46  1  0.68750000  0.27629100  0.20312500  1
  Cd  Cd47  1  0.56250000  0.44347300  0.23437500  1
  Cd  Cd48  1  0.93750000  0.55652700  0.26562500  1
  Cd  Cd49  1  0.81250000  0.72370900  0.29687500  1
  Cd  Cd50  1  0.31250000  0.77629100  0.29687500  1
  Cd  Cd51  1  0.43750000  0.94347300  0.26562500  1
  Cd  Cd52  1  0.81250000  0.05652700  0.29687500  1
  Cd  Cd53  1  0.93750000  0.22370900  0.26562500  1
  Cd  Cd54  1  0.43750000  0.27629100  0.26562500  1
  Cd  Cd55  1  0.31250000  0.44347300  0.29687500  1
  Cd  Cd56  1  0.68750000  0.55652700  0.32812500  1
  Cd  Cd57  1  0.56250000  0.72370900  0.35937500  1
  Cd  Cd58  1  0.06250000  0.77629100  0.35937500  1
  Cd  Cd59  1  0.18750000  0.94347300  0.32812500  1
  Cd  Cd60  1  0.56250000  0.05652700  0.35937500  1
  Cd  Cd61  1  0.68750000  0.22370900  0.32812500  1
  Cd  Cd62  1  0.18750000  0.27629100  0.32812500  1
  Cd  Cd63  1  0.06250000  0.44347300  0.35937500  1
  Cd  Cd64  1  0.43750000  0.55652700  0.39062500  1
  Cd  Cd65  1  0.31250000  0.72370900  0.42187500  1
  Cd  Cd66  1  0.81250000  0.77629100  0.42187500  1
  Cd  Cd67  1  0.93750000  0.94347300  0.39062500  1
  Cd  Cd68  1  0.31250000  0.05652700  0.42187500  1
  Cd  Cd69  1  0.43750000  0.22370900  0.39062500  1
  Cd  Cd70  1  0.93750000  0.27629100  0.39062500  1
  Cd  Cd71  1  0.81250000  0.44347300  0.42187500  1
  Cd  Cd72  1  0.18750000  0.55652700  0.45312500  1
  Cd  Cd73  1  0.06250000  0.72370900  0.48437500  1
  Cd  Cd74  1  0.56250000  0.77629100  0.48437500  1
  Cd  Cd75  1  0.68750000  0.94347300  0.45312500  1
  Cd  Cd76  1  0.06250000  0.05652700  0.48437500  1
  Cd  Cd77  1  0.18750000  0.22370900  0.45312500  1
  Cd  Cd78  1  0.68750000  0.27629100  0.45312500  1
  Cd  Cd79  1  0.56250000  0.44347300  0.48437500  1
  Cd  Cd80  1  0.93750000  0.55652700  0.51562500  1
  Cd  Cd81  1  0.81250000  0.72370900  0.54687500  1
  Cd  Cd82  1  0.31250000  0.77629100  0.54687500  1
  Cd  Cd83  1  0.43750000  0.94347300  0.51562500  1
  Cd  Cd84  1  0.81250000  0.05652700  0.54687500  1
  Cd  Cd85  1  0.93750000  0.22370900  0.51562500  1
  Cd  Cd86  1  0.43750000  0.27629100  0.51562500  1
  Cd  Cd87  1  0.31250000  0.44347300  0.54687500  1
  Cd  Cd88  1  0.68750000  0.55652700  0.57812500  1
  Cd  Cd89  1  0.56250000  0.72370900  0.60937500  1
  Cd  Cd90  1  0.06250000  0.77629100  0.60937500  1
  Cd  Cd91  1  0.18750000  0.94347300  0.57812500  1
  Cd  Cd92  1  0.56250000  0.05652700  0.60937500  1
  Cd  Cd93  1  0.68750000  0.22370900  0.57812500  1
  Cd  Cd94  1  0.18750000  0.27629100  0.57812500  1
  Cd  Cd95  1  0.06250000  0.44347300  0.60937500  1
  Cd  Cd96  1  0.43750000  0.55652700  0.64062500  1
  Cd  Cd97  1  0.31250000  0.72370900  0.67187500  1
  Cd  Cd98  1  0.81250000  0.77629100  0.67187500  1
  Cd  Cd99  1  0.93750000  0.94347300  0.64062500  1
  Cd  Cd100  1  0.31250000  0.05652700  0.67187500  1
  Cd  Cd101  1  0.43750000  0.22370900  0.64062500  1
  Cd  Cd102  1  0.93750000  0.27629100  0.64062500  1
  Cd  Cd103  1  0.81250000  0.44347300  0.67187500  1
  Cd  Cd104  1  0.18750000  0.55652700  0.70312500  1
  Cd  Cd105  1  0.06250000  0.72370900  0.73437500  1
  Cd  Cd106  1  0.56250000  0.77629100  0.73437500  1
  Cd  Cd107  1  0.68750000  0.94347300  0.70312500  1
  Cd  Cd108  1  0.06250000  0.05652700  0.73437500  1
  Cd  Cd109  1  0.18750000  0.22370900  0.70312500  1
  Cd  Cd110  1  0.68750000  0.27629100  0.70312500  1
  Cd  Cd111  1  0.56250000  0.44347300  0.73437500  1
  Cd  Cd112  1  0.93750000  0.55652700  0.76562500  1
  Cd  Cd113  1  0.81250000  0.72370900  0.79687500  1
  Cd  Cd114  1  0.31250000  0.77629100  0.79687500  1
  Cd  Cd115  1  0.43750000  0.94347300  0.76562500  1
  Cd  Cd116  1  0.81250000  0.05652700  0.79687500  1
  Cd  Cd117  1  0.93750000  0.22370900  0.76562500  1
  Cd  Cd118  1  0.43750000  0.27629100  0.76562500  1
  Cd  Cd119  1  0.31250000  0.44347300  0.79687500  1
