# generated using pymatgen
data_Mg22Au67
_symmetry_space_group_name_H-M   'P 1'
_cell_length_a   10.43041218
_cell_length_b   11.29953425
_cell_length_c   49.40543900
_cell_angle_alpha   85.63582371
_cell_angle_beta   88.14566253
_cell_angle_gamma   98.74753851
_symmetry_Int_Tables_number   1
_chemical_formula_structural   Mg22Au67
_chemical_formula_sum   'Mg44 Au134'
_cell_volume   5732.74310784
_cell_formula_units_Z   2
loop_
 _symmetry_equiv_pos_site_id
 _symmetry_equiv_pos_as_xyz
  1  'x, y, z'
loop_
 _atom_site_type_symbol
 _atom_site_label
 _atom_site_symmetry_multiplicity
 _atom_site_fract_x
 _atom_site_fract_y
 _atom_site_fract_z
 _atom_site_occupancy
  Mg  Mg0  1  0.89040000  0.18136300  0.74043200  1
  Mg  Mg1  1  0.36124200  0.25679800  0.71581800  1
  Mg  Mg2  1  0.03002700  0.53290200  0.70685100  1
  Mg  Mg3  1  0.22161600  0.90525900  0.74939900  1
  Mg  Mg4  1  0.31108300  0.90568100  0.66565900  1
  Mg  Mg5  1  0.84056000  0.83248000  0.69059100  1
  Mg  Mg6  1  0.79040000  0.48136300  0.64043200  1
  Mg  Mg7  1  0.26124200  0.55679800  0.61581800  1
  Mg  Mg8  1  0.93002700  0.83290200  0.60685100  1
  Mg  Mg9  1  0.12161600  0.20525900  0.64939900  1
  Mg  Mg10  1  0.50027900  0.60715300  0.68210100  1
  Mg  Mg11  1  0.65136300  0.13100800  0.67414900  1
  Mg  Mg12  1  0.21108300  0.20568100  0.56565900  1
  Mg  Mg13  1  0.74056000  0.13248000  0.59059100  1
  Mg  Mg14  1  0.69040000  0.78136300  0.54043200  1
  Mg  Mg15  1  0.16124200  0.85679800  0.51581800  1
  Mg  Mg16  1  0.83002700  0.13290200  0.50685100  1
  Mg  Mg17  1  0.02161600  0.50525900  0.54939900  1
  Mg  Mg18  1  0.40027900  0.90715300  0.58210100  1
  Mg  Mg19  1  0.55136300  0.43100800  0.57414900  1
  Mg  Mg20  1  0.11108300  0.50568100  0.46565900  1
  Mg  Mg21  1  0.64056000  0.43248000  0.49059100  1
  Mg  Mg22  1  0.59040000  0.08136300  0.44043200  1
  Mg  Mg23  1  0.06124200  0.15679800  0.41581800  1
  Mg  Mg24  1  0.73002700  0.43290200  0.40685100  1
  Mg  Mg25  1  0.92161600  0.80525900  0.44939900  1
  Mg  Mg26  1  0.30027900  0.20715300  0.48210100  1
  Mg  Mg27  1  0.45136300  0.73100800  0.47414900  1
  Mg  Mg28  1  0.01108300  0.80568100  0.36565900  1
  Mg  Mg29  1  0.54056000  0.73248000  0.39059100  1
  Mg  Mg30  1  0.49040000  0.38136300  0.34043200  1
  Mg  Mg31  1  0.96124200  0.45679800  0.31581800  1
  Mg  Mg32  1  0.63002700  0.73290200  0.30685100  1
  Mg  Mg33  1  0.82161600  0.10525900  0.34939900  1
  Mg  Mg34  1  0.20027900  0.50715300  0.38210100  1
  Mg  Mg35  1  0.35136300  0.03100800  0.37414900  1
  Mg  Mg36  1  0.91108300  0.10568100  0.26565900  1
  Mg  Mg37  1  0.44056000  0.03248000  0.29059100  1
  Mg  Mg38  1  0.39040000  0.68136300  0.24043200  1
  Mg  Mg39  1  0.86124200  0.75679800  0.21581800  1
  Mg  Mg40  1  0.53002700  0.03290200  0.20685100  1
  Mg  Mg41  1  0.72161600  0.40525900  0.24939900  1
  Mg  Mg42  1  0.10027900  0.80715300  0.28210100  1
  Mg  Mg43  1  0.25136300  0.33100800  0.27414900  1
  Au  Au44  1  0.10070900  0.29441700  0.70301300  1
  Au  Au45  1  0.10093300  0.79374400  0.70323700  1
  Au  Au46  1  0.15093300  0.14374400  0.75323700  1
  Au  Au47  1  0.15070900  0.64441700  0.75301300  1
  Au  Au48  1  0.36534800  0.75727600  0.71557600  1
  Au  Au49  1  0.88629400  0.68088500  0.74067400  1
  Au  Au50  1  0.81583700  0.41949100  0.74465500  1
  Au  Au51  1  0.43580600  0.01867100  0.71159500  1
  Au  Au52  1  0.29109100  0.49531800  0.71937900  1
  Au  Au53  1  0.96055100  0.94284400  0.73687100  1
  Au  Au54  1  0.62582100  0.71908100  0.72812500  1
  Au  Au55  1  0.62582100  0.21908100  0.72812500  1
  Au  Au56  1  0.55319600  0.45761300  0.73194700  1
  Au  Au57  1  0.69844700  0.98054800  0.72430300  1
  Au  Au58  1  0.00070900  0.59441700  0.60301300  1
  Au  Au59  1  0.00093300  0.09374400  0.60323700  1
  Au  Au60  1  0.05093300  0.44374400  0.65323700  1
  Au  Au61  1  0.05070900  0.94441700  0.65301300  1
  Au  Au62  1  0.83640400  0.33165400  0.69078400  1
  Au  Au63  1  0.31523900  0.40650800  0.66546600  1
  Au  Au64  1  0.26534800  0.05727600  0.61557600  1
  Au  Au65  1  0.78629400  0.98088500  0.64067400  1
  Au  Au66  1  0.38621400  0.16744500  0.66200400  1
  Au  Au67  1  0.71583700  0.71949100  0.64465500  1
  Au  Au68  1  0.76542800  0.57071600  0.69424600  1
  Au  Au69  1  0.33580600  0.31867100  0.61159500  1
  Au  Au70  1  0.91046100  0.09311300  0.68678100  1
  Au  Au71  1  0.19109100  0.79531800  0.61937900  1
  Au  Au72  1  0.24118100  0.64504800  0.66946900  1
  Au  Au73  1  0.86055100  0.24284400  0.63687100  1
  Au  Au74  1  0.57582100  0.86908100  0.67812500  1
  Au  Au75  1  0.52582100  0.01908100  0.62812500  1
  Au  Au76  1  0.52582100  0.51908100  0.62812500  1
  Au  Au77  1  0.57582100  0.36908100  0.67812500  1
  Au  Au78  1  0.45319600  0.75761300  0.63194700  1
  Au  Au79  1  0.59844700  0.28054800  0.62430300  1
  Au  Au80  1  0.97371100  0.68190500  0.65718300  1
  Au  Au81  1  0.17793200  0.05625600  0.69906700  1
  Au  Au82  1  0.90070900  0.89441700  0.50301300  1
  Au  Au83  1  0.90093300  0.39374400  0.50323700  1
  Au  Au84  1  0.95093300  0.74374400  0.55323700  1
  Au  Au85  1  0.95070900  0.24441700  0.55301300  1
  Au  Au86  1  0.73640400  0.63165400  0.59078400  1
  Au  Au87  1  0.21523900  0.70650800  0.56546600  1
  Au  Au88  1  0.16534800  0.35727600  0.51557600  1
  Au  Au89  1  0.68629400  0.28088500  0.54067400  1
  Au  Au90  1  0.28621400  0.46744500  0.56200400  1
  Au  Au91  1  0.61583700  0.01949100  0.54465500  1
  Au  Au92  1  0.66542800  0.87071600  0.59424600  1
  Au  Au93  1  0.23580600  0.61867100  0.51159500  1
  Au  Au94  1  0.81046100  0.39311300  0.58678100  1
  Au  Au95  1  0.09109100  0.09531800  0.51937900  1
  Au  Au96  1  0.14118100  0.94504800  0.56946900  1
  Au  Au97  1  0.76055100  0.54284400  0.53687100  1
  Au  Au98  1  0.47582100  0.16908100  0.57812500  1
  Au  Au99  1  0.42582100  0.31908100  0.52812500  1
  Au  Au100  1  0.42582100  0.81908100  0.52812500  1
  Au  Au101  1  0.47582100  0.66908100  0.57812500  1
  Au  Au102  1  0.35319600  0.05761300  0.53194700  1
  Au  Au103  1  0.49844700  0.58054800  0.52430300  1
  Au  Au104  1  0.87371100  0.98190500  0.55718300  1
  Au  Au105  1  0.07793200  0.35625600  0.59906700  1
  Au  Au106  1  0.80070900  0.19441700  0.40301300  1
  Au  Au107  1  0.80093300  0.69374400  0.40323700  1
  Au  Au108  1  0.85093300  0.04374400  0.45323700  1
  Au  Au109  1  0.85070900  0.54441700  0.45301300  1
  Au  Au110  1  0.63640400  0.93165400  0.49078400  1
  Au  Au111  1  0.11523900  0.00650800  0.46546600  1
  Au  Au112  1  0.06534800  0.65727600  0.41557600  1
  Au  Au113  1  0.58629400  0.58088500  0.44067400  1
  Au  Au114  1  0.18621400  0.76744500  0.46200400  1
  Au  Au115  1  0.51583700  0.31949100  0.44465500  1
  Au  Au116  1  0.56542800  0.17071600  0.49424600  1
  Au  Au117  1  0.13580600  0.91867100  0.41159500  1
  Au  Au118  1  0.71046100  0.69311300  0.48678100  1
  Au  Au119  1  0.99109100  0.39531800  0.41937900  1
  Au  Au120  1  0.04118100  0.24504800  0.46946900  1
  Au  Au121  1  0.66055100  0.84284400  0.43687100  1
  Au  Au122  1  0.37582100  0.46908100  0.47812500  1
  Au  Au123  1  0.32582100  0.61908100  0.42812500  1
  Au  Au124  1  0.32582100  0.11908100  0.42812500  1
  Au  Au125  1  0.37582100  0.96908100  0.47812500  1
  Au  Au126  1  0.25319600  0.35761300  0.43194700  1
  Au  Au127  1  0.39844700  0.88054800  0.42430300  1
  Au  Au128  1  0.77371100  0.28190500  0.45718300  1
  Au  Au129  1  0.97793200  0.65625600  0.49906700  1
  Au  Au130  1  0.70070900  0.49441700  0.30301300  1
  Au  Au131  1  0.70093300  0.99374400  0.30323700  1
  Au  Au132  1  0.75093300  0.34374400  0.35323700  1
  Au  Au133  1  0.75070900  0.84441700  0.35301300  1
  Au  Au134  1  0.53640400  0.23165400  0.39078400  1
  Au  Au135  1  0.01523900  0.30650800  0.36546600  1
  Au  Au136  1  0.96534800  0.95727600  0.31557600  1
  Au  Au137  1  0.48629400  0.88088500  0.34067400  1
  Au  Au138  1  0.08621400  0.06744500  0.36200400  1
  Au  Au139  1  0.41583700  0.61949100  0.34465500  1
  Au  Au140  1  0.46542800  0.47071600  0.39424600  1
  Au  Au141  1  0.03580600  0.21867100  0.31159500  1
  Au  Au142  1  0.61046100  0.99311300  0.38678100  1
  Au  Au143  1  0.89109100  0.69531800  0.31937900  1
  Au  Au144  1  0.94118100  0.54504800  0.36946900  1
  Au  Au145  1  0.56055100  0.14284400  0.33687100  1
  Au  Au146  1  0.27582100  0.76908100  0.37812500  1
  Au  Au147  1  0.22582100  0.91908100  0.32812500  1
  Au  Au148  1  0.22582100  0.41908100  0.32812500  1
  Au  Au149  1  0.27582100  0.26908100  0.37812500  1
  Au  Au150  1  0.15319600  0.65761300  0.33194700  1
  Au  Au151  1  0.29844700  0.18054800  0.32430300  1
  Au  Au152  1  0.67371100  0.58190500  0.35718300  1
  Au  Au153  1  0.87793200  0.95625600  0.39906700  1
  Au  Au154  1  0.60070900  0.79441700  0.20301300  1
  Au  Au155  1  0.60093300  0.29374400  0.20323700  1
  Au  Au156  1  0.65093300  0.64374400  0.25323700  1
  Au  Au157  1  0.65070900  0.14441700  0.25301300  1
  Au  Au158  1  0.43640400  0.53165400  0.29078400  1
  Au  Au159  1  0.91523900  0.60650800  0.26546600  1
  Au  Au160  1  0.86534800  0.25727600  0.21557600  1
  Au  Au161  1  0.38629400  0.18088500  0.24067400  1
  Au  Au162  1  0.98621400  0.36744500  0.26200400  1
  Au  Au163  1  0.31583700  0.91949100  0.24465500  1
  Au  Au164  1  0.36542800  0.77071600  0.29424600  1
  Au  Au165  1  0.93580600  0.51867100  0.21159500  1
  Au  Au166  1  0.51046100  0.29311300  0.28678100  1
  Au  Au167  1  0.79109100  0.99531800  0.21937900  1
  Au  Au168  1  0.84118100  0.84504800  0.26946900  1
  Au  Au169  1  0.46055100  0.44284400  0.23687100  1
  Au  Au170  1  0.17582100  0.06908100  0.27812500  1
  Au  Au171  1  0.12582100  0.21908100  0.22812500  1
  Au  Au172  1  0.12582100  0.71908100  0.22812500  1
  Au  Au173  1  0.17582100  0.56908100  0.27812500  1
  Au  Au174  1  0.05319600  0.95761300  0.23194700  1
  Au  Au175  1  0.19844700  0.48054800  0.22430300  1
  Au  Au176  1  0.57371100  0.88190500  0.25718300  1
  Au  Au177  1  0.77793200  0.25625600  0.29906700  1
