# generated using pymatgen
data_Mg27Zn49
_symmetry_space_group_name_H-M   'P 1'
_cell_length_a   13.26606209
_cell_length_b   14.70723619
_cell_length_c   50.02254400
_cell_angle_alpha   94.04592358
_cell_angle_beta   85.51984715
_cell_angle_gamma   104.27395804
_symmetry_Int_Tables_number   1
_chemical_formula_structural   Mg27Zn49
_chemical_formula_sum   'Mg108 Zn196'
_cell_volume   9416.24948960
_cell_formula_units_Z   4
loop_
 _symmetry_equiv_pos_site_id
 _symmetry_equiv_pos_as_xyz
  1  'x, y, z'
loop_
 _atom_site_type_symbol
 _atom_site_label
 _atom_site_symmetry_multiplicity
 _atom_site_fract_x
 _atom_site_fract_y
 _atom_site_fract_z
 _atom_site_occupancy
  Mg  Mg0  1  0.55624400  0.35231700  0.25367100  1
  Mg  Mg1  1  0.81638800  0.95641800  0.26762100  1
  Mg  Mg2  1  0.89742700  0.60215500  0.27202800  1
  Mg  Mg3  1  0.65894400  0.57654400  0.25972700  1
  Mg  Mg4  1  0.03661100  0.04358200  0.27965200  1
  Mg  Mg5  1  0.95557200  0.39784500  0.27524500  1
  Mg  Mg6  1  0.29675500  0.64768300  0.29360100  1
  Mg  Mg7  1  0.19405400  0.42345600  0.28754600  1
  Mg  Mg8  1  0.63792500  0.89982000  0.31121600  1
  Mg  Mg9  1  0.94186300  0.71342500  0.32750700  1
  Mg  Mg10  1  0.45624400  0.35231700  0.35367100  1
  Mg  Mg11  1  0.71638800  0.95641800  0.36762100  1
  Mg  Mg12  1  0.79742700  0.60215500  0.37202800  1
  Mg  Mg13  1  0.46992400  0.02805300  0.30196300  1
  Mg  Mg14  1  0.55894400  0.57654400  0.35972700  1
  Mg  Mg15  1  0.93661100  0.04358200  0.37965200  1
  Mg  Mg16  1  0.53761300  0.67618400  0.30588700  1
  Mg  Mg17  1  0.85557200  0.39784500  0.37524500  1
  Mg  Mg18  1  0.19675500  0.64768300  0.39360100  1
  Mg  Mg19  1  0.21538600  0.32381600  0.34138600  1
  Mg  Mg20  1  0.88928800  0.90491200  0.32445700  1
  Mg  Mg21  1  0.57398600  0.25117100  0.30774600  1
  Mg  Mg22  1  0.17901300  0.74882900  0.33952600  1
  Mg  Mg23  1  0.09405400  0.42345600  0.38754600  1
  Mg  Mg24  1  0.11507400  0.10018000  0.33605600  1
  Mg  Mg25  1  0.28307500  0.97194700  0.34530900  1
  Mg  Mg26  1  0.81113500  0.28657500  0.31976600  1
  Mg  Mg27  1  0.86371100  0.09508800  0.32281600  1
  Mg  Mg28  1  0.53792500  0.89982000  0.41121600  1
  Mg  Mg29  1  0.84186300  0.71342500  0.42750700  1
  Mg  Mg30  1  0.35624400  0.35231700  0.45367100  1
  Mg  Mg31  1  0.61638800  0.95641800  0.46762100  1
  Mg  Mg32  1  0.69742700  0.60215500  0.47202800  1
  Mg  Mg33  1  0.36992400  0.02805300  0.40196300  1
  Mg  Mg34  1  0.45894400  0.57654400  0.45972700  1
  Mg  Mg35  1  0.83661100  0.04358200  0.47965200  1
  Mg  Mg36  1  0.43761300  0.67618400  0.40588700  1
  Mg  Mg37  1  0.75557200  0.39784500  0.47524500  1
  Mg  Mg38  1  0.09675500  0.64768300  0.49360100  1
  Mg  Mg39  1  0.11538600  0.32381600  0.44138600  1
  Mg  Mg40  1  0.78928800  0.90491200  0.42445700  1
  Mg  Mg41  1  0.47398600  0.25117100  0.40774600  1
  Mg  Mg42  1  0.07901300  0.74882900  0.43952600  1
  Mg  Mg43  1  0.99405400  0.42345600  0.48754600  1
  Mg  Mg44  1  0.01507400  0.10018000  0.43605600  1
  Mg  Mg45  1  0.18307500  0.97194700  0.44530900  1
  Mg  Mg46  1  0.71113500  0.28657500  0.41976600  1
  Mg  Mg47  1  0.76371100  0.09508800  0.42281600  1
  Mg  Mg48  1  0.43792500  0.89982000  0.51121600  1
  Mg  Mg49  1  0.74186300  0.71342500  0.52750700  1
  Mg  Mg50  1  0.25624400  0.35231700  0.55367100  1
  Mg  Mg51  1  0.51638800  0.95641800  0.56762100  1
  Mg  Mg52  1  0.59742700  0.60215500  0.57202800  1
  Mg  Mg53  1  0.26992400  0.02805300  0.50196300  1
  Mg  Mg54  1  0.35894400  0.57654400  0.55972700  1
  Mg  Mg55  1  0.73661100  0.04358200  0.57965200  1
  Mg  Mg56  1  0.33761300  0.67618400  0.50588700  1
  Mg  Mg57  1  0.65557200  0.39784500  0.57524500  1
  Mg  Mg58  1  0.99675500  0.64768300  0.59360100  1
  Mg  Mg59  1  0.01538600  0.32381600  0.54138600  1
  Mg  Mg60  1  0.68928800  0.90491200  0.52445700  1
  Mg  Mg61  1  0.37398600  0.25117100  0.50774600  1
  Mg  Mg62  1  0.97901300  0.74882900  0.53952600  1
  Mg  Mg63  1  0.89405400  0.42345600  0.58754600  1
  Mg  Mg64  1  0.91507400  0.10018000  0.53605600  1
  Mg  Mg65  1  0.08307500  0.97194700  0.54530900  1
  Mg  Mg66  1  0.61113500  0.28657500  0.51976600  1
  Mg  Mg67  1  0.66371100  0.09508800  0.52281600  1
  Mg  Mg68  1  0.33792500  0.89982000  0.61121600  1
  Mg  Mg69  1  0.64186300  0.71342500  0.62750700  1
  Mg  Mg70  1  0.15624400  0.35231700  0.65367100  1
  Mg  Mg71  1  0.41638800  0.95641800  0.66762100  1
  Mg  Mg72  1  0.49742700  0.60215500  0.67202800  1
  Mg  Mg73  1  0.16992400  0.02805300  0.60196300  1
  Mg  Mg74  1  0.25894400  0.57654400  0.65972700  1
  Mg  Mg75  1  0.63661100  0.04358200  0.67965200  1
  Mg  Mg76  1  0.23761300  0.67618400  0.60588700  1
  Mg  Mg77  1  0.55557200  0.39784500  0.67524500  1
  Mg  Mg78  1  0.89675500  0.64768300  0.69360100  1
  Mg  Mg79  1  0.91538600  0.32381600  0.64138600  1
  Mg  Mg80  1  0.58928800  0.90491200  0.62445700  1
  Mg  Mg81  1  0.27398600  0.25117100  0.60774600  1
  Mg  Mg82  1  0.87901300  0.74882900  0.63952600  1
  Mg  Mg83  1  0.79405400  0.42345600  0.68754600  1
  Mg  Mg84  1  0.81507400  0.10018000  0.63605600  1
  Mg  Mg85  1  0.98307500  0.97194700  0.64530900  1
  Mg  Mg86  1  0.51113500  0.28657500  0.61976600  1
  Mg  Mg87  1  0.56371100  0.09508800  0.62281600  1
  Mg  Mg88  1  0.23792500  0.89982000  0.71121600  1
  Mg  Mg89  1  0.54186300  0.71342500  0.72750700  1
  Mg  Mg90  1  0.05624400  0.35231700  0.75367100  1
  Mg  Mg91  1  0.31638800  0.95641800  0.76762100  1
  Mg  Mg92  1  0.39742700  0.60215500  0.77202800  1
  Mg  Mg93  1  0.06992400  0.02805300  0.70196300  1
  Mg  Mg94  1  0.15894400  0.57654400  0.75972700  1
  Mg  Mg95  1  0.53661100  0.04358200  0.77965200  1
  Mg  Mg96  1  0.13761300  0.67618400  0.70588700  1
  Mg  Mg97  1  0.45557200  0.39784500  0.77524500  1
  Mg  Mg98  1  0.79675500  0.64768300  0.79360100  1
  Mg  Mg99  1  0.81538600  0.32381600  0.74138600  1
  Mg  Mg100  1  0.48928800  0.90491200  0.72445700  1
  Mg  Mg101  1  0.17398600  0.25117100  0.70774600  1
  Mg  Mg102  1  0.77901300  0.74882900  0.73952600  1
  Mg  Mg103  1  0.69405400  0.42345600  0.78754600  1
  Mg  Mg104  1  0.71507400  0.10018000  0.73605600  1
  Mg  Mg105  1  0.88307500  0.97194700  0.74530900  1
  Mg  Mg106  1  0.41113500  0.28657500  0.71976600  1
  Mg  Mg107  1  0.46371100  0.09508800  0.72281600  1
  Zn  Zn108  1  0.96039600  0.81738700  0.27549700  1
  Zn  Zn109  1  0.46476000  0.66285200  0.24896500  1
  Zn  Zn110  1  0.12065200  0.57676400  0.25804900  1
  Zn  Zn111  1  0.76759700  0.75046900  0.29190000  1
  Zn  Zn112  1  0.42649900  0.50000000  0.27363600  1
  Zn  Zn113  1  0.28279900  0.86290600  0.29230400  1
  Zn  Zn114  1  0.45548800  0.82447600  0.27552100  1
  Zn  Zn115  1  0.60228400  0.96319600  0.25666400  1
  Zn  Zn116  1  0.74542800  0.26762300  0.26352600  1
  Zn  Zn117  1  0.89260300  0.18261300  0.27177600  1
  Zn  Zn118  1  0.57020000  0.13709400  0.25496900  1
  Zn  Zn119  1  0.08540200  0.24953100  0.25537300  1
  Zn  Zn120  1  0.73234700  0.42323600  0.28922400  1
  Zn  Zn121  1  0.63821300  0.78453800  0.25904800  1
  Zn  Zn122  1  0.70246600  0.09783900  0.28860800  1
  Zn  Zn123  1  0.21478600  0.21546200  0.28822500  1
  Zn  Zn124  1  0.15053300  0.90216100  0.25866500  1
  Zn  Zn125  1  0.10757100  0.73237700  0.28374600  1
  Zn  Zn126  1  0.39751000  0.17552400  0.27175200  1
  Zn  Zn127  1  0.25071500  0.03680400  0.29060800  1
  Zn  Zn128  1  0.38823900  0.33714800  0.29830800  1
  Zn  Zn129  1  0.73283400  0.59229000  0.31650700  1
  Zn  Zn130  1  0.86039600  0.81738700  0.37549700  1
  Zn  Zn131  1  0.36476000  0.66285200  0.34896500  1
  Zn  Zn132  1  0.03893400  0.24831100  0.30593400  1
  Zn  Zn133  1  0.02065200  0.57676400  0.35804900  1
  Zn  Zn134  1  0.66759700  0.75046900  0.39190000  1
  Zn  Zn135  1  0.32649900  0.50000000  0.37363600  1
  Zn  Zn136  1  0.02016500  0.40771000  0.33076600  1
  Zn  Zn137  1  0.18279900  0.86290600  0.39230400  1
  Zn  Zn138  1  0.68134800  0.42312300  0.33984600  1
  Zn  Zn139  1  0.35548800  0.82447600  0.37552100  1
  Zn  Zn140  1  0.50228400  0.96319600  0.35666400  1
  Zn  Zn141  1  0.55633500  0.46639900  0.30674200  1
  Zn  Zn142  1  0.64542800  0.26762300  0.36352600  1
  Zn  Zn143  1  0.79260300  0.18261300  0.37177600  1
  Zn  Zn144  1  0.47020000  0.13709400  0.35496900  1
  Zn  Zn145  1  0.65129600  0.09965700  0.33713600  1
  Zn  Zn146  1  0.07165100  0.57687700  0.30742700  1
  Zn  Zn147  1  0.98540200  0.24953100  0.35537300  1
  Zn  Zn148  1  0.19666300  0.53360100  0.34053100  1
  Zn  Zn149  1  0.10170200  0.90034300  0.31013700  1
  Zn  Zn150  1  0.63234700  0.42323600  0.38922400  1
  Zn  Zn151  1  0.37649900  0.50000000  0.32363600  1
  Zn  Zn152  1  0.53821300  0.78453800  0.35904800  1
  Zn  Zn153  1  0.40446500  0.82500200  0.32503900  1
  Zn  Zn154  1  0.60246600  0.09783900  0.38860800  1
  Zn  Zn155  1  0.11478600  0.21546200  0.38822500  1
  Zn  Zn156  1  0.05053300  0.90216100  0.35866500  1
  Zn  Zn157  1  0.00757100  0.73237700  0.38374600  1
  Zn  Zn158  1  0.34853400  0.17499800  0.32223300  1
  Zn  Zn159  1  0.71406500  0.75168900  0.34133900  1
  Zn  Zn160  1  0.87649900  0.50000000  0.32363600  1
  Zn  Zn161  1  0.29751000  0.17552400  0.37175200  1
  Zn  Zn162  1  0.15071500  0.03680400  0.39060800  1
  Zn  Zn163  1  0.28823900  0.33714800  0.39830800  1
  Zn  Zn164  1  0.63283400  0.59229000  0.41650700  1
  Zn  Zn165  1  0.76039600  0.81738700  0.47549700  1
  Zn  Zn166  1  0.26476000  0.66285200  0.44896500  1
  Zn  Zn167  1  0.93893400  0.24831100  0.40593400  1
  Zn  Zn168  1  0.92065200  0.57676400  0.45804900  1
  Zn  Zn169  1  0.56759700  0.75046900  0.49190000  1
  Zn  Zn170  1  0.22649900  0.50000000  0.47363600  1
  Zn  Zn171  1  0.92016500  0.40771000  0.43076600  1
  Zn  Zn172  1  0.08279900  0.86290600  0.49230400  1
  Zn  Zn173  1  0.58134800  0.42312300  0.43984600  1
  Zn  Zn174  1  0.25548800  0.82447600  0.47552100  1
  Zn  Zn175  1  0.40228400  0.96319600  0.45666400  1
  Zn  Zn176  1  0.45633500  0.46639900  0.40674200  1
  Zn  Zn177  1  0.54542800  0.26762300  0.46352600  1
  Zn  Zn178  1  0.69260300  0.18261300  0.47177600  1
  Zn  Zn179  1  0.37020000  0.13709400  0.45496900  1
  Zn  Zn180  1  0.55129600  0.09965700  0.43713600  1
  Zn  Zn181  1  0.97165100  0.57687700  0.40742700  1
  Zn  Zn182  1  0.88540200  0.24953100  0.45537300  1
  Zn  Zn183  1  0.09666300  0.53360100  0.44053100  1
  Zn  Zn184  1  0.00170200  0.90034300  0.41013700  1
  Zn  Zn185  1  0.53234700  0.42323600  0.48922400  1
  Zn  Zn186  1  0.27649900  0.50000000  0.42363600  1
  Zn  Zn187  1  0.43821300  0.78453800  0.45904800  1
  Zn  Zn188  1  0.30446500  0.82500200  0.42503900  1
  Zn  Zn189  1  0.50246600  0.09783900  0.48860800  1
  Zn  Zn190  1  0.01478600  0.21546200  0.48822500  1
  Zn  Zn191  1  0.95053300  0.90216100  0.45866500  1
  Zn  Zn192  1  0.90757100  0.73237700  0.48374600  1
  Zn  Zn193  1  0.24853400  0.17499800  0.42223300  1
  Zn  Zn194  1  0.61406500  0.75168900  0.44133900  1
  Zn  Zn195  1  0.77649900  0.50000000  0.42363600  1
  Zn  Zn196  1  0.19751000  0.17552400  0.47175200  1
  Zn  Zn197  1  0.05071500  0.03680400  0.49060800  1
  Zn  Zn198  1  0.18823900  0.33714800  0.49830800  1
  Zn  Zn199  1  0.53283400  0.59229000  0.51650700  1
  Zn  Zn200  1  0.66039600  0.81738700  0.57549700  1
  Zn  Zn201  1  0.16476000  0.66285200  0.54896500  1
  Zn  Zn202  1  0.83893400  0.24831100  0.50593400  1
  Zn  Zn203  1  0.82065200  0.57676400  0.55804900  1
  Zn  Zn204  1  0.46759700  0.75046900  0.59190000  1
  Zn  Zn205  1  0.12649900  0.50000000  0.57363600  1
  Zn  Zn206  1  0.82016500  0.40771000  0.53076600  1
  Zn  Zn207  1  0.98279900  0.86290600  0.59230400  1
  Zn  Zn208  1  0.48134800  0.42312300  0.53984600  1
  Zn  Zn209  1  0.15548800  0.82447600  0.57552100  1
  Zn  Zn210  1  0.30228400  0.96319600  0.55666400  1
  Zn  Zn211  1  0.35633500  0.46639900  0.50674200  1
  Zn  Zn212  1  0.44542800  0.26762300  0.56352600  1
  Zn  Zn213  1  0.59260300  0.18261300  0.57177600  1
  Zn  Zn214  1  0.27020000  0.13709400  0.55496900  1
  Zn  Zn215  1  0.45129600  0.09965700  0.53713600  1
  Zn  Zn216  1  0.87165100  0.57687700  0.50742700  1
  Zn  Zn217  1  0.78540200  0.24953100  0.55537300  1
  Zn  Zn218  1  0.99666300  0.53360100  0.54053100  1
  Zn  Zn219  1  0.90170200  0.90034300  0.51013700  1
  Zn  Zn220  1  0.43234700  0.42323600  0.58922400  1
  Zn  Zn221  1  0.17649900  0.50000000  0.52363600  1
  Zn  Zn222  1  0.33821300  0.78453800  0.55904800  1
  Zn  Zn223  1  0.20446500  0.82500200  0.52503900  1
  Zn  Zn224  1  0.40246600  0.09783900  0.58860800  1
  Zn  Zn225  1  0.91478600  0.21546200  0.58822500  1
  Zn  Zn226  1  0.85053300  0.90216100  0.55866500  1
  Zn  Zn227  1  0.80757100  0.73237700  0.58374600  1
  Zn  Zn228  1  0.14853400  0.17499800  0.52223300  1
  Zn  Zn229  1  0.51406500  0.75168900  0.54133900  1
  Zn  Zn230  1  0.67649900  0.50000000  0.52363600  1
  Zn  Zn231  1  0.09751000  0.17552400  0.57175200  1
  Zn  Zn232  1  0.95071500  0.03680400  0.59060800  1
  Zn  Zn233  1  0.08823900  0.33714800  0.59830800  1
  Zn  Zn234  1  0.43283400  0.59229000  0.61650700  1
  Zn  Zn235  1  0.56039600  0.81738700  0.67549700  1
  Zn  Zn236  1  0.06476000  0.66285200  0.64896500  1
  Zn  Zn237  1  0.73893400  0.24831100  0.60593400  1
  Zn  Zn238  1  0.72065200  0.57676400  0.65804900  1
  Zn  Zn239  1  0.36759700  0.75046900  0.69190000  1
  Zn  Zn240  1  0.02649900  0.50000000  0.67363600  1
  Zn  Zn241  1  0.72016500  0.40771000  0.63076600  1
  Zn  Zn242  1  0.88279900  0.86290600  0.69230400  1
  Zn  Zn243  1  0.38134800  0.42312300  0.63984600  1
  Zn  Zn244  1  0.05548800  0.82447600  0.67552100  1
  Zn  Zn245  1  0.20228400  0.96319600  0.65666400  1
  Zn  Zn246  1  0.25633500  0.46639900  0.60674200  1
  Zn  Zn247  1  0.34542800  0.26762300  0.66352600  1
  Zn  Zn248  1  0.49260300  0.18261300  0.67177600  1
  Zn  Zn249  1  0.17020000  0.13709400  0.65496900  1
  Zn  Zn250  1  0.35129600  0.09965700  0.63713600  1
  Zn  Zn251  1  0.77165100  0.57687700  0.60742700  1
  Zn  Zn252  1  0.68540200  0.24953100  0.65537300  1
  Zn  Zn253  1  0.89666300  0.53360100  0.64053100  1
  Zn  Zn254  1  0.80170200  0.90034300  0.61013700  1
  Zn  Zn255  1  0.33234700  0.42323600  0.68922400  1
  Zn  Zn256  1  0.07649900  0.50000000  0.62363600  1
  Zn  Zn257  1  0.23821300  0.78453800  0.65904800  1
  Zn  Zn258  1  0.10446500  0.82500200  0.62503900  1
  Zn  Zn259  1  0.30246600  0.09783900  0.68860800  1
  Zn  Zn260  1  0.81478600  0.21546200  0.68822500  1
  Zn  Zn261  1  0.75053300  0.90216100  0.65866500  1
  Zn  Zn262  1  0.70757100  0.73237700  0.68374600  1
  Zn  Zn263  1  0.04853400  0.17499800  0.62223300  1
  Zn  Zn264  1  0.41406500  0.75168900  0.64133900  1
  Zn  Zn265  1  0.57649900  0.50000000  0.62363600  1
  Zn  Zn266  1  0.99751000  0.17552400  0.67175200  1
  Zn  Zn267  1  0.85071500  0.03680400  0.69060800  1
  Zn  Zn268  1  0.98823900  0.33714800  0.69830800  1
  Zn  Zn269  1  0.33283400  0.59229000  0.71650700  1
  Zn  Zn270  1  0.46039600  0.81738700  0.77549700  1
  Zn  Zn271  1  0.96476000  0.66285200  0.74896500  1
  Zn  Zn272  1  0.63893400  0.24831100  0.70593400  1
  Zn  Zn273  1  0.62065200  0.57676400  0.75804900  1
  Zn  Zn274  1  0.26759700  0.75046900  0.79190000  1
  Zn  Zn275  1  0.92649900  0.50000000  0.77363600  1
  Zn  Zn276  1  0.62016500  0.40771000  0.73076600  1
  Zn  Zn277  1  0.78279900  0.86290600  0.79230400  1
  Zn  Zn278  1  0.28134800  0.42312300  0.73984600  1
  Zn  Zn279  1  0.95548800  0.82447600  0.77552100  1
  Zn  Zn280  1  0.10228400  0.96319600  0.75666400  1
  Zn  Zn281  1  0.15633500  0.46639900  0.70674200  1
  Zn  Zn282  1  0.24542800  0.26762300  0.76352600  1
  Zn  Zn283  1  0.39260300  0.18261300  0.77177600  1
  Zn  Zn284  1  0.07020000  0.13709400  0.75496900  1
  Zn  Zn285  1  0.25129600  0.09965700  0.73713600  1
  Zn  Zn286  1  0.67165100  0.57687700  0.70742700  1
  Zn  Zn287  1  0.58540200  0.24953100  0.75537300  1
  Zn  Zn288  1  0.79666300  0.53360100  0.74053100  1
  Zn  Zn289  1  0.70170200  0.90034300  0.71013700  1
  Zn  Zn290  1  0.23234700  0.42323600  0.78922400  1
  Zn  Zn291  1  0.97649900  0.50000000  0.72363600  1
  Zn  Zn292  1  0.13821300  0.78453800  0.75904800  1
  Zn  Zn293  1  0.00446500  0.82500200  0.72503900  1
  Zn  Zn294  1  0.20246600  0.09783900  0.78860800  1
  Zn  Zn295  1  0.71478600  0.21546200  0.78822500  1
  Zn  Zn296  1  0.65053300  0.90216100  0.75866500  1
  Zn  Zn297  1  0.60757100  0.73237700  0.78374600  1
  Zn  Zn298  1  0.94853400  0.17499800  0.72223300  1
  Zn  Zn299  1  0.31406500  0.75168900  0.74133900  1
  Zn  Zn300  1  0.47649900  0.50000000  0.72363600  1
  Zn  Zn301  1  0.89751000  0.17552400  0.77175200  1
  Zn  Zn302  1  0.75071500  0.03680400  0.79060800  1
  Zn  Zn303  1  0.88823900  0.33714800  0.79830800  1
