# generated using pymatgen
data_Yb17Mg5
_symmetry_space_group_name_H-M   'P 1'
_cell_length_a   7.34873276
_cell_length_b   9.48692644
_cell_length_c   43.88645600
_cell_angle_alpha   94.96393436
_cell_angle_beta   94.80267501
_cell_angle_gamma   67.21287579
_symmetry_Int_Tables_number   1
_chemical_formula_structural   Yb17Mg5
_chemical_formula_sum   'Yb34 Mg10'
_cell_volume   2806.04166389
_cell_formula_units_Z   2
loop_
 _symmetry_equiv_pos_site_id
 _symmetry_equiv_pos_as_xyz
  1  'x, y, z'
loop_
 _atom_site_type_symbol
 _atom_site_label
 _atom_site_symmetry_multiplicity
 _atom_site_fract_x
 _atom_site_fract_y
 _atom_site_fract_z
 _atom_site_occupancy
  Yb  Yb0  1  0.00245500  0.07894900  0.28403500  1
  Yb  Yb1  1  0.59403700  0.33421000  0.23298300  1
  Yb  Yb2  1  0.10456000  0.33421000  0.23298300  1
  Yb  Yb3  1  0.79614200  0.91403600  0.21701700  1
  Yb  Yb4  1  0.30666500  0.91403600  0.21701700  1
  Yb  Yb5  1  0.69824600  0.66929700  0.26596500  1
  Yb  Yb6  1  0.80245500  0.57894900  0.38403500  1
  Yb  Yb7  1  0.39403700  0.83421000  0.33298300  1
  Yb  Yb8  1  0.90456000  0.83421000  0.33298300  1
  Yb  Yb9  1  0.59614200  0.41403600  0.31701700  1
  Yb  Yb10  1  0.10666500  0.41403600  0.31701700  1
  Yb  Yb11  1  0.49824600  0.16929700  0.36596500  1
  Yb  Yb12  1  0.60245500  0.07894900  0.48403500  1
  Yb  Yb13  1  0.19403700  0.33421000  0.43298300  1
  Yb  Yb14  1  0.70456000  0.33421000  0.43298300  1
  Yb  Yb15  1  0.39614200  0.91403600  0.41701700  1
  Yb  Yb16  1  0.90666500  0.91403600  0.41701700  1
  Yb  Yb17  1  0.29824600  0.66929700  0.46596500  1
  Yb  Yb18  1  0.40245500  0.57894900  0.58403500  1
  Yb  Yb19  1  0.99403700  0.83421000  0.53298300  1
  Yb  Yb20  1  0.50456000  0.83421000  0.53298300  1
  Yb  Yb21  1  0.19614200  0.41403600  0.51701700  1
  Yb  Yb22  1  0.70666500  0.41403600  0.51701700  1
  Yb  Yb23  1  0.09824600  0.16929700  0.56596500  1
  Yb  Yb24  1  0.20245500  0.07894900  0.68403500  1
  Yb  Yb25  1  0.79403700  0.33421000  0.63298300  1
  Yb  Yb26  1  0.30456000  0.33421000  0.63298300  1
  Yb  Yb27  1  0.99614200  0.91403600  0.61701700  1
  Yb  Yb28  1  0.50666500  0.91403600  0.61701700  1
  Yb  Yb29  1  0.89824600  0.66929700  0.66596500  1
  Yb  Yb30  1  0.59403700  0.83421000  0.73298300  1
  Yb  Yb31  1  0.10456000  0.83421000  0.73298300  1
  Yb  Yb32  1  0.79614200  0.41403600  0.71701700  1
  Yb  Yb33  1  0.30666500  0.41403600  0.71701700  1
  Mg  Mg34  1  0.50035100  0.08245600  0.28333300  1
  Mg  Mg35  1  0.20035100  0.66579000  0.26666700  1
  Mg  Mg36  1  0.30035100  0.58245600  0.38333300  1
  Mg  Mg37  1  0.00035100  0.16579000  0.36666700  1
  Mg  Mg38  1  0.10035100  0.08245600  0.48333300  1
  Mg  Mg39  1  0.80035100  0.66579000  0.46666700  1
  Mg  Mg40  1  0.90035100  0.58245600  0.58333300  1
  Mg  Mg41  1  0.60035100  0.16579000  0.56666700  1
  Mg  Mg42  1  0.70035100  0.08245600  0.68333300  1
  Mg  Mg43  1  0.40035100  0.66579000  0.66666700  1
