# generated using pymatgen
data_Mg367Ir84
_symmetry_space_group_name_H-M   'P 1'
_cell_length_a   18.30800199
_cell_length_b   18.30800171
_cell_length_c   46.43980600
_cell_angle_alpha   90.32248290
_cell_angle_beta   89.67751711
_cell_angle_gamma   78.71339112
_symmetry_Int_Tables_number   1
_chemical_formula_structural   Mg367Ir84
_chemical_formula_sum   'Mg367 Ir84'
_cell_volume   15264.19257997
_cell_formula_units_Z   1
loop_
 _symmetry_equiv_pos_site_id
 _symmetry_equiv_pos_as_xyz
  1  'x, y, z'
loop_
 _atom_site_type_symbol
 _atom_site_label
 _atom_site_symmetry_multiplicity
 _atom_site_fract_x
 _atom_site_fract_y
 _atom_site_fract_z
 _atom_site_occupancy
  Mg  Mg0  1  0.82718200  0.00615100  0.26888000  1
  Mg  Mg1  1  0.03551600  0.63115100  0.28971400  1
  Mg  Mg2  1  0.32718200  0.50615100  0.26888000  1
  Mg  Mg3  1  0.91051600  0.75615100  0.22721400  1
  Mg  Mg4  1  0.78075500  0.85178700  0.26272900  1
  Mg  Mg5  1  0.90674500  0.75992200  0.29159900  1
  Mg  Mg6  1  0.16428700  0.50238000  0.28782800  1
  Mg  Mg7  1  0.08948400  0.54305700  0.23336500  1
  Mg  Mg8  1  0.18134900  0.81865100  0.27929700  1
  Mg  Mg9  1  0.07907000  0.74610600  0.24389900  1
  Mg  Mg10  1  0.29556400  0.33961900  0.25715000  1
  Mg  Mg11  1  0.20408700  0.65257200  0.27492400  1
  Mg  Mg12  1  0.92289000  0.58526700  0.24506400  1
  Mg  Mg13  1  0.97593300  0.88072600  0.26400100  1
  Mg  Mg14  1  0.57964700  0.05553700  0.24010900  1
  Mg  Mg15  1  0.86694400  0.60973000  0.30450300  1
  Mg  Mg16  1  0.24384900  0.25615100  0.31054700  1
  Mg  Mg17  1  0.74384900  0.75615100  0.31054700  1
  Mg  Mg18  1  0.11884900  0.38115100  0.24804700  1
  Mg  Mg19  1  0.32718200  0.00615100  0.26888000  1
  Mg  Mg20  1  0.61884900  0.88115100  0.24804700  1
  Mg  Mg21  1  0.19742200  0.10178700  0.30439600  1
  Mg  Mg22  1  0.14821300  0.21924500  0.26272900  1
  Mg  Mg23  1  0.45694300  0.91051600  0.23336500  1
  Mg  Mg24  1  0.50615100  0.79305700  0.27503100  1
  Mg  Mg25  1  0.47301600  0.19365100  0.25846400  1
  Mg  Mg26  1  0.49573600  0.99610600  0.28556600  1
  Mg  Mg27  1  0.26176500  0.88157600  0.23209300  1
  Mg  Mg28  1  0.65805100  0.70676500  0.25598500  1
  Mg  Mg29  1  0.71223100  0.58961900  0.29881700  1
  Mg  Mg30  1  0.33955700  0.83526700  0.28673000  1
  Mg  Mg31  1  0.15862800  0.01619600  0.25219500  1
  Mg  Mg32  1  0.39260000  0.13072600  0.30566800  1
  Mg  Mg33  1  0.99631300  0.30553700  0.28177500  1
  Mg  Mg34  1  0.94213400  0.42268300  0.23894400  1
  Mg  Mg35  1  0.31480800  0.17703500  0.25103000  1
  Mg  Mg36  1  0.41051600  0.75615100  0.22721400  1
  Mg  Mg37  1  0.61884900  0.38115100  0.24804700  1
  Mg  Mg38  1  0.91051600  0.25615100  0.22721400  1
  Mg  Mg39  1  0.53551600  0.63115100  0.28971400  1
  Mg  Mg40  1  0.74384900  0.25615100  0.31054700  1
  Mg  Mg41  1  0.03551600  0.13115100  0.28971400  1
  Mg  Mg42  1  0.49007800  0.50992200  0.24993200  1
  Mg  Mg43  1  0.56488000  0.46924500  0.30439600  1
  Mg  Mg44  1  0.87360900  0.16051600  0.27503100  1
  Mg  Mg45  1  0.74762000  0.25238000  0.24616100  1
  Mg  Mg46  1  0.88968200  0.44365100  0.30013000  1
  Mg  Mg47  1  0.76468200  0.56865100  0.23763000  1
  Mg  Mg48  1  0.67843100  0.13157600  0.27375900  1
  Mg  Mg49  1  0.07471800  0.95676500  0.29765200  1
  Mg  Mg50  1  0.78742000  0.40257200  0.23325800  1
  Mg  Mg51  1  0.57529500  0.26619600  0.29386100  1
  Mg  Mg52  1  0.35880000  0.67268300  0.28061100  1
  Mg  Mg53  1  0.45027800  0.35973000  0.26283600  1
  Mg  Mg54  1  0.73147400  0.42703500  0.29269700  1
  Mg  Mg55  1  0.07718200  0.75615100  0.39388000  1
  Mg  Mg56  1  0.28551600  0.38115100  0.41471400  1
  Mg  Mg57  1  0.57718200  0.25615100  0.39388000  1
  Mg  Mg58  1  0.95218200  0.88115100  0.33138000  1
  Mg  Mg59  1  0.16051600  0.50615100  0.35221400  1
  Mg  Mg60  1  0.45218200  0.38115100  0.33138000  1
  Mg  Mg61  1  0.03075500  0.60178700  0.38772900  1
  Mg  Mg62  1  0.15674500  0.50992200  0.41659900  1
  Mg  Mg63  1  0.98154700  0.71924500  0.34606200  1
  Mg  Mg64  1  0.29027600  0.41051600  0.31669800  1
  Mg  Mg65  1  0.41428700  0.25238000  0.41282800  1
  Mg  Mg66  1  0.33948400  0.29305700  0.35836500  1
  Mg  Mg67  1  0.30634900  0.69365100  0.34179700  1
  Mg  Mg68  1  0.43134900  0.56865100  0.40429700  1
  Mg  Mg69  1  0.32907000  0.49610600  0.36889900  1
  Mg  Mg70  1  0.09509800  0.38157600  0.31542600  1
  Mg  Mg71  1  0.49138500  0.20676500  0.33931800  1
  Mg  Mg72  1  0.54556400  0.08961900  0.38215000  1
  Mg  Mg73  1  0.45408700  0.40257200  0.39992400  1
  Mg  Mg74  1  0.17289000  0.33526700  0.37006400  1
  Mg  Mg75  1  0.99196100  0.51619600  0.33552800  1
  Mg  Mg76  1  0.22593300  0.63072600  0.38900100  1
  Mg  Mg77  1  0.82964700  0.80553700  0.36510900  1
  Mg  Mg78  1  0.77546700  0.92268300  0.32227700  1
  Mg  Mg79  1  0.11694400  0.35973000  0.42950300  1
  Mg  Mg80  1  0.14814100  0.67703500  0.33436300  1
  Mg  Mg81  1  0.49384900  0.00615100  0.43554700  1
  Mg  Mg82  1  0.45218200  0.88115100  0.33138000  1
  Mg  Mg83  1  0.99384900  0.50615100  0.43554700  1
  Mg  Mg84  1  0.36884900  0.13115100  0.37304700  1
  Mg  Mg85  1  0.57718200  0.75615100  0.39388000  1
  Mg  Mg86  1  0.86884900  0.63115100  0.37304700  1
  Mg  Mg87  1  0.44742200  0.85178700  0.42939600  1
  Mg  Mg88  1  0.32341100  0.00992200  0.33326600  1
  Mg  Mg89  1  0.39821300  0.96924500  0.38772900  1
  Mg  Mg90  1  0.70694300  0.66051600  0.35836500  1
  Mg  Mg91  1  0.58095300  0.75238000  0.32949500  1
  Mg  Mg92  1  0.75615100  0.54305700  0.40003100  1
  Mg  Mg93  1  0.72301600  0.94365100  0.38346400  1
  Mg  Mg94  1  0.59801600  0.06865100  0.32096400  1
  Mg  Mg95  1  0.74573600  0.74610600  0.41056600  1
  Mg  Mg96  1  0.51176500  0.63157600  0.35709300  1
  Mg  Mg97  1  0.90805100  0.45676500  0.38098500  1
  Mg  Mg98  1  0.96223100  0.33961900  0.42381700  1
  Mg  Mg99  1  0.62075400  0.90257200  0.31659100  1
  Mg  Mg100  1  0.58955700  0.58526700  0.41173000  1
  Mg  Mg101  1  0.40862800  0.76619600  0.37719500  1
  Mg  Mg102  1  0.64260000  0.88072600  0.43066800  1
  Mg  Mg103  1  0.24631300  0.05553700  0.40677500  1
  Mg  Mg104  1  0.19213400  0.17268300  0.36394400  1
  Mg  Mg105  1  0.28361100  0.85973000  0.34617000  1
  Mg  Mg106  1  0.56480800  0.92703500  0.37603000  1
  Mg  Mg107  1  0.66051600  0.50615100  0.35221400  1
  Mg  Mg108  1  0.86884900  0.13115100  0.37304700  1
  Mg  Mg109  1  0.16051600  0.00615100  0.35221400  1
  Mg  Mg110  1  0.78551600  0.38115100  0.41471400  1
  Mg  Mg111  1  0.99384900  0.00615100  0.43554700  1
  Mg  Mg112  1  0.28551600  0.88115100  0.41471400  1
  Mg  Mg113  1  0.61408900  0.35178700  0.34606200  1
  Mg  Mg114  1  0.74007800  0.25992200  0.37493200  1
  Mg  Mg115  1  0.81488000  0.21924500  0.42939600  1
  Mg  Mg116  1  0.12360900  0.91051600  0.40003100  1
  Mg  Mg117  1  0.99762000  0.00238000  0.37116100  1
  Mg  Mg118  1  0.92281800  0.04305700  0.31669800  1
  Mg  Mg119  1  0.13968200  0.19365100  0.42513000  1
  Mg  Mg120  1  0.01468200  0.31865100  0.36263000  1
  Mg  Mg121  1  0.91240300  0.24610600  0.32723200  1
  Mg  Mg122  1  0.92843100  0.88157600  0.39875900  1
  Mg  Mg123  1  0.32471800  0.70676500  0.42265200  1
  Mg  Mg124  1  0.12889800  0.83961900  0.34048300  1
  Mg  Mg125  1  0.03742000  0.15257200  0.35825800  1
  Mg  Mg126  1  0.75622300  0.08526700  0.32839700  1
  Mg  Mg127  1  0.82529500  0.01619600  0.41886100  1
  Mg  Mg128  1  0.80926700  0.38072600  0.34733400  1
  Mg  Mg129  1  0.41298000  0.55553700  0.32344200  1
  Mg  Mg130  1  0.60880000  0.42268300  0.40561100  1
  Mg  Mg131  1  0.70027800  0.10973000  0.38783600  1
  Mg  Mg132  1  0.98147400  0.17703500  0.41769700  1
  Mg  Mg133  1  0.32718200  0.50615100  0.51888000  1
  Mg  Mg134  1  0.53551600  0.13115100  0.53971400  1
  Mg  Mg135  1  0.82718200  0.00615100  0.51888000  1
  Mg  Mg136  1  0.20218200  0.63115100  0.45638000  1
  Mg  Mg137  1  0.41051600  0.25615100  0.47721400  1
  Mg  Mg138  1  0.70218200  0.13115100  0.45638000  1
  Mg  Mg139  1  0.28075500  0.35178700  0.51272900  1
  Mg  Mg140  1  0.40674500  0.25992200  0.54159900  1
  Mg  Mg141  1  0.23154700  0.46924500  0.47106200  1
  Mg  Mg142  1  0.54027600  0.16051600  0.44169800  1
  Mg  Mg143  1  0.66428700  0.00238000  0.53782800  1
  Mg  Mg144  1  0.58948400  0.04305700  0.48336500  1
  Mg  Mg145  1  0.55634900  0.44365100  0.46679700  1
  Mg  Mg146  1  0.68134900  0.31865100  0.52929700  1
  Mg  Mg147  1  0.57907000  0.24610600  0.49389900  1
  Mg  Mg148  1  0.34509800  0.13157600  0.44042600  1
  Mg  Mg149  1  0.74138500  0.95676500  0.46431800  1
  Mg  Mg150  1  0.79556400  0.83961900  0.50715000  1
  Mg  Mg151  1  0.70408700  0.15257200  0.52492400  1
  Mg  Mg152  1  0.42289000  0.08526700  0.49506400  1
  Mg  Mg153  1  0.24196100  0.26619600  0.46052800  1
  Mg  Mg154  1  0.47593300  0.38072600  0.51400100  1
  Mg  Mg155  1  0.07964700  0.55553700  0.49010900  1
  Mg  Mg156  1  0.02546700  0.67268300  0.44727700  1
  Mg  Mg157  1  0.36694400  0.10973000  0.55450300  1
  Mg  Mg158  1  0.39814100  0.42703500  0.45936300  1
  Mg  Mg159  1  0.74384900  0.75615100  0.56054700  1
  Mg  Mg160  1  0.70218200  0.63115100  0.45638000  1
  Mg  Mg161  1  0.24384900  0.25615100  0.56054700  1
  Mg  Mg162  1  0.61884900  0.88115100  0.49804700  1
  Mg  Mg163  1  0.82718200  0.50615100  0.51888000  1
  Mg  Mg164  1  0.11884900  0.38115100  0.49804700  1
  Mg  Mg165  1  0.69742200  0.60178700  0.55439600  1
  Mg  Mg166  1  0.57341100  0.75992200  0.45826600  1
  Mg  Mg167  1  0.64821300  0.71924500  0.51272900  1
  Mg  Mg168  1  0.95694300  0.41051600  0.48336500  1
  Mg  Mg169  1  0.83095300  0.50238000  0.45449500  1
  Mg  Mg170  1  0.00615100  0.29305700  0.52503100  1
  Mg  Mg171  1  0.97301600  0.69365100  0.50846400  1
  Mg  Mg172  1  0.84801600  0.81865100  0.44596400  1
  Mg  Mg173  1  0.99573600  0.49610600  0.53556600  1
  Mg  Mg174  1  0.76176500  0.38157600  0.48209300  1
  Mg  Mg175  1  0.15805100  0.20676500  0.50598500  1
  Mg  Mg176  1  0.21223100  0.08961900  0.54881700  1
  Mg  Mg177  1  0.87075400  0.65257200  0.44159100  1
  Mg  Mg178  1  0.83955700  0.33526700  0.53673000  1
  Mg  Mg179  1  0.65862800  0.51619600  0.50219500  1
  Mg  Mg180  1  0.89260000  0.63072600  0.55566800  1
  Mg  Mg181  1  0.49631300  0.80553700  0.53177500  1
  Mg  Mg182  1  0.44213400  0.92268300  0.48894400  1
  Mg  Mg183  1  0.53361100  0.60973000  0.47117000  1
  Mg  Mg184  1  0.81480800  0.67703500  0.50103000  1
  Mg  Mg185  1  0.91051600  0.25615100  0.47721400  1
  Mg  Mg186  1  0.11884900  0.88115100  0.49804700  1
  Mg  Mg187  1  0.41051600  0.75615100  0.47721400  1
  Mg  Mg188  1  0.03551600  0.13115100  0.53971400  1
  Mg  Mg189  1  0.24384900  0.75615100  0.56054700  1
  Mg  Mg190  1  0.53551600  0.63115100  0.53971400  1
  Mg  Mg191  1  0.86408900  0.10178700  0.47106200  1
  Mg  Mg192  1  0.99007800  0.00992200  0.49993200  1
  Mg  Mg193  1  0.06488000  0.96924500  0.55439600  1
  Mg  Mg194  1  0.37360900  0.66051600  0.52503100  1
  Mg  Mg195  1  0.24762000  0.75238000  0.49616100  1
  Mg  Mg196  1  0.17281800  0.79305700  0.44169800  1
  Mg  Mg197  1  0.38968200  0.94365100  0.55013000  1
  Mg  Mg198  1  0.26468200  0.06865100  0.48763000  1
  Mg  Mg199  1  0.16240300  0.99610600  0.45223200  1
  Mg  Mg200  1  0.17843100  0.63157600  0.52375900  1
  Mg  Mg201  1  0.57471800  0.45676500  0.54765200  1
  Mg  Mg202  1  0.37889800  0.58961900  0.46548300  1
  Mg  Mg203  1  0.28742000  0.90257200  0.48325800  1
  Mg  Mg204  1  0.00622300  0.83526700  0.45339700  1
  Mg  Mg205  1  0.07529500  0.76619600  0.54386100  1
  Mg  Mg206  1  0.05926700  0.13072600  0.47233400  1
  Mg  Mg207  1  0.66298000  0.30553700  0.44844200  1
  Mg  Mg208  1  0.85880000  0.17268300  0.53061100  1
  Mg  Mg209  1  0.95027800  0.85973000  0.51283600  1
  Mg  Mg210  1  0.23147400  0.92703500  0.54269700  1
  Mg  Mg211  1  0.57718200  0.25615100  0.64388000  1
  Mg  Mg212  1  0.78551600  0.88115100  0.66471400  1
  Mg  Mg213  1  0.07718200  0.75615100  0.64388000  1
  Mg  Mg214  1  0.45218200  0.38115100  0.58138000  1
  Mg  Mg215  1  0.66051600  0.00615100  0.60221400  1
  Mg  Mg216  1  0.95218200  0.88115100  0.58138000  1
  Mg  Mg217  1  0.53075500  0.10178700  0.63772900  1
  Mg  Mg218  1  0.65674500  0.00992200  0.66659900  1
  Mg  Mg219  1  0.48154700  0.21924500  0.59606200  1
  Mg  Mg220  1  0.79027600  0.91051600  0.56669800  1
  Mg  Mg221  1  0.91428700  0.75238000  0.66282800  1
  Mg  Mg222  1  0.83948400  0.79305700  0.60836500  1
  Mg  Mg223  1  0.80634900  0.19365100  0.59179700  1
  Mg  Mg224  1  0.93134900  0.06865100  0.65429700  1
  Mg  Mg225  1  0.82907000  0.99610600  0.61889900  1
  Mg  Mg226  1  0.59509800  0.88157600  0.56542600  1
  Mg  Mg227  1  0.99138500  0.70676500  0.58931800  1
  Mg  Mg228  1  0.04556400  0.58961900  0.63215000  1
  Mg  Mg229  1  0.95408700  0.90257200  0.64992400  1
  Mg  Mg230  1  0.67289000  0.83526700  0.62006400  1
  Mg  Mg231  1  0.49196100  0.01619600  0.58552800  1
  Mg  Mg232  1  0.72593300  0.13072600  0.63900100  1
  Mg  Mg233  1  0.32964700  0.30553700  0.61510900  1
  Mg  Mg234  1  0.27546700  0.42268300  0.57227700  1
  Mg  Mg235  1  0.61694400  0.85973000  0.67950300  1
  Mg  Mg236  1  0.64814100  0.17703500  0.58436300  1
  Mg  Mg237  1  0.99384900  0.50615100  0.68554700  1
  Mg  Mg238  1  0.95218200  0.38115100  0.58138000  1
  Mg  Mg239  1  0.49384900  0.00615100  0.68554700  1
  Mg  Mg240  1  0.86884900  0.63115100  0.62304700  1
  Mg  Mg241  1  0.07718200  0.25615100  0.64388000  1
  Mg  Mg242  1  0.36884900  0.13115100  0.62304700  1
  Mg  Mg243  1  0.94742200  0.35178700  0.67939600  1
  Mg  Mg244  1  0.82341100  0.50992200  0.58326600  1
  Mg  Mg245  1  0.89821300  0.46924500  0.63772900  1
  Mg  Mg246  1  0.20694300  0.16051600  0.60836500  1
  Mg  Mg247  1  0.08095300  0.25238000  0.57949500  1
  Mg  Mg248  1  0.25615100  0.04305700  0.65003100  1
  Mg  Mg249  1  0.22301600  0.44365100  0.63346400  1
  Mg  Mg250  1  0.09801600  0.56865100  0.57096400  1
  Mg  Mg251  1  0.24573600  0.24610600  0.66056600  1
  Mg  Mg252  1  0.01176500  0.13157600  0.60709300  1
  Mg  Mg253  1  0.40805100  0.95676500  0.63098500  1
  Mg  Mg254  1  0.46223100  0.83961900  0.67381700  1
  Mg  Mg255  1  0.12075400  0.40257200  0.56659100  1
  Mg  Mg256  1  0.08955700  0.08526700  0.66173000  1
  Mg  Mg257  1  0.90862800  0.26619600  0.62719500  1
  Mg  Mg258  1  0.14260000  0.38072600  0.68066800  1
  Mg  Mg259  1  0.74631300  0.55553700  0.65677500  1
  Mg  Mg260  1  0.69213400  0.67268300  0.61394400  1
  Mg  Mg261  1  0.78361100  0.35973000  0.59617000  1
  Mg  Mg262  1  0.06480800  0.42703500  0.62603000  1
  Mg  Mg263  1  0.16051600  0.00615100  0.60221400  1
  Mg  Mg264  1  0.36884900  0.63115100  0.62304700  1
  Mg  Mg265  1  0.66051600  0.50615100  0.60221400  1
  Mg  Mg266  1  0.28551600  0.88115100  0.66471400  1
  Mg  Mg267  1  0.49384900  0.50615100  0.68554700  1
  Mg  Mg268  1  0.78551600  0.38115100  0.66471400  1
  Mg  Mg269  1  0.11408900  0.85178700  0.59606200  1
  Mg  Mg270  1  0.24007800  0.75992200  0.62493200  1
  Mg  Mg271  1  0.31488000  0.71924500  0.67939600  1
  Mg  Mg272  1  0.62360900  0.41051600  0.65003100  1
  Mg  Mg273  1  0.49762000  0.50238000  0.62116100  1
  Mg  Mg274  1  0.42281800  0.54305700  0.56669800  1
  Mg  Mg275  1  0.63968200  0.69365100  0.67513000  1
  Mg  Mg276  1  0.51468200  0.81865100  0.61263000  1
  Mg  Mg277  1  0.41240300  0.74610600  0.57723200  1
  Mg  Mg278  1  0.42843100  0.38157600  0.64875900  1
  Mg  Mg279  1  0.82471800  0.20676500  0.67265200  1
  Mg  Mg280  1  0.62889800  0.33961900  0.59048300  1
  Mg  Mg281  1  0.53742000  0.65257200  0.60825800  1
  Mg  Mg282  1  0.25622300  0.58526700  0.57839700  1
  Mg  Mg283  1  0.32529500  0.51619600  0.66886100  1
  Mg  Mg284  1  0.30926700  0.88072600  0.59733400  1
  Mg  Mg285  1  0.91298000  0.05553700  0.57344200  1
  Mg  Mg286  1  0.10880000  0.92268300  0.65561100  1
  Mg  Mg287  1  0.20027800  0.60973000  0.63783600  1
  Mg  Mg288  1  0.48147400  0.67703500  0.66769700  1
  Mg  Mg289  1  0.82718200  0.00615100  0.76888000  1
  Mg  Mg290  1  0.03551600  0.63115100  0.78971400  1
  Mg  Mg291  1  0.32718200  0.50615100  0.76888000  1
  Mg  Mg292  1  0.70218200  0.13115100  0.70638000  1
  Mg  Mg293  1  0.91051600  0.75615100  0.72721400  1
  Mg  Mg294  1  0.20218200  0.63115100  0.70638000  1
  Mg  Mg295  1  0.78075500  0.85178700  0.76272900  1
  Mg  Mg296  1  0.90674500  0.75992200  0.79159900  1
  Mg  Mg297  1  0.73154700  0.96924500  0.72106200  1
  Mg  Mg298  1  0.04027600  0.66051600  0.69169800  1
  Mg  Mg299  1  0.16428700  0.50238000  0.78782800  1
  Mg  Mg300  1  0.08948400  0.54305700  0.73336500  1
  Mg  Mg301  1  0.05634900  0.94365100  0.71679700  1
  Mg  Mg302  1  0.18134900  0.81865100  0.77929700  1
  Mg  Mg303  1  0.07907000  0.74610600  0.74389900  1
  Mg  Mg304  1  0.84509800  0.63157600  0.69042600  1
  Mg  Mg305  1  0.24138500  0.45676500  0.71431800  1
  Mg  Mg306  1  0.29556400  0.33961900  0.75715000  1
  Mg  Mg307  1  0.20408700  0.65257200  0.77492400  1
  Mg  Mg308  1  0.92289000  0.58526700  0.74506400  1
  Mg  Mg309  1  0.74196100  0.76619600  0.71052800  1
  Mg  Mg310  1  0.97593300  0.88072600  0.76400100  1
  Mg  Mg311  1  0.57964700  0.05553700  0.74010900  1
  Mg  Mg312  1  0.52546700  0.17268300  0.69727700  1
  Mg  Mg313  1  0.86694400  0.60973000  0.80450300  1
  Mg  Mg314  1  0.89814100  0.92703500  0.70936300  1
  Mg  Mg315  1  0.24384900  0.25615100  0.81054700  1
  Mg  Mg316  1  0.20218200  0.13115100  0.70638000  1
  Mg  Mg317  1  0.74384900  0.75615100  0.81054700  1
  Mg  Mg318  1  0.11884900  0.38115100  0.74804700  1
  Mg  Mg319  1  0.32718200  0.00615100  0.76888000  1
  Mg  Mg320  1  0.61884900  0.88115100  0.74804700  1
  Mg  Mg321  1  0.19742200  0.10178700  0.80439600  1
  Mg  Mg322  1  0.07341100  0.25992200  0.70826600  1
  Mg  Mg323  1  0.14821300  0.21924500  0.76272900  1
  Mg  Mg324  1  0.45694300  0.91051600  0.73336500  1
  Mg  Mg325  1  0.33095300  0.00238000  0.70449500  1
  Mg  Mg326  1  0.50615100  0.79305700  0.77503100  1
  Mg  Mg327  1  0.47301600  0.19365100  0.75846400  1
  Mg  Mg328  1  0.34801600  0.31865100  0.69596400  1
  Mg  Mg329  1  0.49573600  0.99610600  0.78556600  1
  Mg  Mg330  1  0.26176500  0.88157600  0.73209300  1
  Mg  Mg331  1  0.65805100  0.70676500  0.75598500  1
  Mg  Mg332  1  0.71223100  0.58961900  0.79881700  1
  Mg  Mg333  1  0.37075400  0.15257200  0.69159100  1
  Mg  Mg334  1  0.33955700  0.83526700  0.78673000  1
  Mg  Mg335  1  0.15862800  0.01619600  0.75219500  1
  Mg  Mg336  1  0.39260000  0.13072600  0.80566800  1
  Mg  Mg337  1  0.99631300  0.30553700  0.78177500  1
  Mg  Mg338  1  0.94213400  0.42268300  0.73894400  1
  Mg  Mg339  1  0.03361100  0.10973000  0.72117000  1
  Mg  Mg340  1  0.31480800  0.17703500  0.75103000  1
  Mg  Mg341  1  0.41051600  0.75615100  0.72721400  1
  Mg  Mg342  1  0.61884900  0.38115100  0.74804700  1
  Mg  Mg343  1  0.91051600  0.25615100  0.72721400  1
  Mg  Mg344  1  0.53551600  0.63115100  0.78971400  1
  Mg  Mg345  1  0.74384900  0.25615100  0.81054700  1
  Mg  Mg346  1  0.03551600  0.13115100  0.78971400  1
  Mg  Mg347  1  0.36408900  0.60178700  0.72106200  1
  Mg  Mg348  1  0.49007800  0.50992200  0.74993200  1
  Mg  Mg349  1  0.56488000  0.46924500  0.80439600  1
  Mg  Mg350  1  0.87360900  0.16051600  0.77503100  1
  Mg  Mg351  1  0.74762000  0.25238000  0.74616100  1
  Mg  Mg352  1  0.67281800  0.29305700  0.69169800  1
  Mg  Mg353  1  0.88968200  0.44365100  0.80013000  1
  Mg  Mg354  1  0.76468200  0.56865100  0.73763000  1
  Mg  Mg355  1  0.66240300  0.49610600  0.70223200  1
  Mg  Mg356  1  0.67843100  0.13157600  0.77375900  1
  Mg  Mg357  1  0.07471800  0.95676500  0.79765200  1
  Mg  Mg358  1  0.87889800  0.08961900  0.71548300  1
  Mg  Mg359  1  0.78742000  0.40257200  0.73325800  1
  Mg  Mg360  1  0.50622300  0.33526700  0.70339700  1
  Mg  Mg361  1  0.57529500  0.26619600  0.79386100  1
  Mg  Mg362  1  0.55926700  0.63072600  0.72233400  1
  Mg  Mg363  1  0.16298000  0.80553700  0.69844200  1
  Mg  Mg364  1  0.35880000  0.67268300  0.78061100  1
  Mg  Mg365  1  0.45027800  0.35973000  0.76283600  1
  Mg  Mg366  1  0.73147400  0.42703500  0.79269700  1
  Ir  Ir367  1  0.80784500  0.69813900  0.25921200  1
  Ir  Ir368  1  0.68434100  0.98232600  0.27780100  1
  Ir  Ir369  1  0.05186100  0.77548800  0.30087800  1
  Ir  Ir370  1  0.38669000  0.27997600  0.30162600  1
  Ir  Ir371  1  0.01917000  0.48681400  0.27854900  1
  Ir  Ir372  1  0.22451200  0.94813900  0.30087800  1
  Ir  Ir373  1  0.42985300  0.06416300  0.23688200  1
  Ir  Ir374  1  0.26767400  0.73232600  0.23613400  1
  Ir  Ir375  1  0.63519400  0.52548800  0.25921200  1
  Ir  Ir376  1  0.84652000  0.31416300  0.27854900  1
  Ir  Ir377  1  0.97002400  0.02997600  0.25996000  1
  Ir  Ir378  1  0.60250400  0.23681400  0.23688200  1
  Ir  Ir379  1  0.05784500  0.44813900  0.38421200  1
  Ir  Ir380  1  0.93434100  0.73232600  0.40280100  1
  Ir  Ir381  1  0.30186100  0.52548800  0.42587800  1
  Ir  Ir382  1  0.26318600  0.56416300  0.32021600  1
  Ir  Ir383  1  0.63669000  0.02997600  0.42662600  1
  Ir  Ir384  1  0.26917000  0.23681400  0.40354900  1
  Ir  Ir385  1  0.47451200  0.69813900  0.42587800  1
  Ir  Ir386  1  0.10100800  0.23232600  0.31946800  1
  Ir  Ir387  1  0.46852800  0.02548800  0.34254500  1
  Ir  Ir388  1  0.67985300  0.81416300  0.36188200  1
  Ir  Ir389  1  0.80335700  0.52997600  0.34329300  1
  Ir  Ir390  1  0.43583700  0.73681400  0.32021600  1
  Ir  Ir391  1  0.64117800  0.19813900  0.34254500  1
  Ir  Ir392  1  0.51767400  0.48232600  0.36113400  1
  Ir  Ir393  1  0.88519400  0.27548800  0.38421200  1
  Ir  Ir394  1  0.09652000  0.06416300  0.40354900  1
  Ir  Ir395  1  0.22002400  0.77997600  0.38496000  1
  Ir  Ir396  1  0.85250400  0.98681400  0.36188200  1
  Ir  Ir397  1  0.30784500  0.19813900  0.50921200  1
  Ir  Ir398  1  0.18434100  0.48232600  0.52780100  1
  Ir  Ir399  1  0.55186100  0.27548800  0.55087800  1
  Ir  Ir400  1  0.51318600  0.31416300  0.44521600  1
  Ir  Ir401  1  0.88669000  0.77997600  0.55162600  1
  Ir  Ir402  1  0.51917000  0.98681400  0.52854900  1
  Ir  Ir403  1  0.72451200  0.44813900  0.55087800  1
  Ir  Ir404  1  0.35100800  0.98232600  0.44446800  1
  Ir  Ir405  1  0.71852800  0.77548800  0.46754500  1
  Ir  Ir406  1  0.92985300  0.56416300  0.48688200  1
  Ir  Ir407  1  0.05335700  0.27997600  0.46829300  1
  Ir  Ir408  1  0.68583700  0.48681400  0.44521600  1
  Ir  Ir409  1  0.89117800  0.94813900  0.46754500  1
  Ir  Ir410  1  0.76767400  0.23232600  0.48613400  1
  Ir  Ir411  1  0.13519400  0.02548800  0.50921200  1
  Ir  Ir412  1  0.34652000  0.81416300  0.52854900  1
  Ir  Ir413  1  0.47002400  0.52997600  0.50996000  1
  Ir  Ir414  1  0.10250400  0.73681400  0.48688200  1
  Ir  Ir415  1  0.55784500  0.94813900  0.63421200  1
  Ir  Ir416  1  0.43434100  0.23232600  0.65280100  1
  Ir  Ir417  1  0.80186100  0.02548800  0.67587800  1
  Ir  Ir418  1  0.76318600  0.06416300  0.57021600  1
  Ir  Ir419  1  0.13669000  0.52997600  0.67662600  1
  Ir  Ir420  1  0.76917000  0.73681400  0.65354900  1
  Ir  Ir421  1  0.97451200  0.19813900  0.67587800  1
  Ir  Ir422  1  0.60100800  0.73232600  0.56946800  1
  Ir  Ir423  1  0.96852800  0.52548800  0.59254500  1
  Ir  Ir424  1  0.17985300  0.31416300  0.61188200  1
  Ir  Ir425  1  0.30335700  0.02997600  0.59329300  1
  Ir  Ir426  1  0.93583700  0.23681400  0.57021600  1
  Ir  Ir427  1  0.14117800  0.69813900  0.59254500  1
  Ir  Ir428  1  0.01767400  0.98232600  0.61113400  1
  Ir  Ir429  1  0.38519400  0.77548800  0.63421200  1
  Ir  Ir430  1  0.59652000  0.56416300  0.65354900  1
  Ir  Ir431  1  0.72002400  0.27997600  0.63496000  1
  Ir  Ir432  1  0.35250400  0.48681400  0.61188200  1
  Ir  Ir433  1  0.80784500  0.69813900  0.75921200  1
  Ir  Ir434  1  0.68434100  0.98232600  0.77780100  1
  Ir  Ir435  1  0.05186100  0.77548800  0.80087800  1
  Ir  Ir436  1  0.01318600  0.81416300  0.69521600  1
  Ir  Ir437  1  0.38669000  0.27997600  0.80162600  1
  Ir  Ir438  1  0.01917000  0.48681400  0.77854900  1
  Ir  Ir439  1  0.22451200  0.94813900  0.80087800  1
  Ir  Ir440  1  0.85100800  0.48232600  0.69446800  1
  Ir  Ir441  1  0.21852800  0.27548800  0.71754500  1
  Ir  Ir442  1  0.42985300  0.06416300  0.73688200  1
  Ir  Ir443  1  0.55335700  0.77997600  0.71829300  1
  Ir  Ir444  1  0.18583700  0.98681400  0.69521600  1
  Ir  Ir445  1  0.39117800  0.44813900  0.71754500  1
  Ir  Ir446  1  0.26767400  0.73232600  0.73613400  1
  Ir  Ir447  1  0.63519400  0.52548800  0.75921200  1
  Ir  Ir448  1  0.84652000  0.31416300  0.77854900  1
  Ir  Ir449  1  0.97002400  0.02997600  0.75996000  1
  Ir  Ir450  1  0.60250400  0.23681400  0.73688200  1
