# generated using pymatgen
data_MgCd2
_symmetry_space_group_name_H-M   'P 1'
_cell_length_a   5.22123900
_cell_length_b   8.35399632
_cell_length_c   42.70485800
_cell_angle_alpha   90.37435949
_cell_angle_beta   90.00000000
_cell_angle_gamma   90.00000000
_symmetry_Int_Tables_number   1
_chemical_formula_structural   MgCd2
_chemical_formula_sum   'Mg18 Cd36'
_cell_volume   1862.66976329
_cell_formula_units_Z   18
loop_
 _symmetry_equiv_pos_site_id
 _symmetry_equiv_pos_as_xyz
  1  'x, y, z'
loop_
 _atom_site_type_symbol
 _atom_site_label
 _atom_site_symmetry_multiplicity
 _atom_site_fract_x
 _atom_site_fract_y
 _atom_site_fract_z
 _atom_site_occupancy
  Mg  Mg0  1  0.25000000  0.03274500  0.81360200  1
  Mg  Mg1  1  0.75000000  0.53868400  0.75782700  1
  Mg  Mg2  1  0.25000000  0.96131600  0.74217300  1
  Mg  Mg3  1  0.75000000  0.46725500  0.68639800  1
  Mg  Mg4  1  0.25000000  0.88988800  0.67074500  1
  Mg  Mg5  1  0.75000000  0.39582700  0.61496900  1
  Mg  Mg6  1  0.25000000  0.81845900  0.59931600  1
  Mg  Mg7  1  0.75000000  0.32439800  0.54354100  1
  Mg  Mg8  1  0.25000000  0.74703100  0.52788800  1
  Mg  Mg9  1  0.75000000  0.25296900  0.47211200  1
  Mg  Mg10  1  0.25000000  0.67560200  0.45645900  1
  Mg  Mg11  1  0.75000000  0.18154100  0.40068400  1
  Mg  Mg12  1  0.25000000  0.60417300  0.38503100  1
  Mg  Mg13  1  0.75000000  0.11011200  0.32925500  1
  Mg  Mg14  1  0.25000000  0.53274500  0.31360200  1
  Mg  Mg15  1  0.75000000  0.03868400  0.25782700  1
  Mg  Mg16  1  0.25000000  0.46131600  0.24217300  1
  Mg  Mg17  1  0.75000000  0.96725500  0.18639800  1
  Cd  Cd18  1  0.25000000  0.67669900  0.78975200  1
  Cd  Cd19  1  0.25000000  0.31856100  0.76597900  1
  Cd  Cd20  1  0.75000000  0.25286700  0.80544900  1
  Cd  Cd21  1  0.75000000  0.89473000  0.78167700  1
  Cd  Cd22  1  0.25000000  0.60527000  0.71832300  1
  Cd  Cd23  1  0.25000000  0.24713300  0.69455100  1
  Cd  Cd24  1  0.75000000  0.18143900  0.73402100  1
  Cd  Cd25  1  0.75000000  0.82330100  0.71024800  1
  Cd  Cd26  1  0.25000000  0.53384200  0.64689500  1
  Cd  Cd27  1  0.25000000  0.17570400  0.62312200  1
  Cd  Cd28  1  0.75000000  0.11001000  0.66259200  1
  Cd  Cd29  1  0.75000000  0.75187300  0.63882000  1
  Cd  Cd30  1  0.25000000  0.46241300  0.57546600  1
  Cd  Cd31  1  0.25000000  0.10427600  0.55169300  1
  Cd  Cd32  1  0.75000000  0.03858200  0.59116400  1
  Cd  Cd33  1  0.75000000  0.68044400  0.56739100  1
  Cd  Cd34  1  0.25000000  0.39098500  0.50403800  1
  Cd  Cd35  1  0.25000000  0.03284700  0.48026500  1
  Cd  Cd36  1  0.75000000  0.96715300  0.51973500  1
  Cd  Cd37  1  0.75000000  0.60901500  0.49596200  1
  Cd  Cd38  1  0.25000000  0.31955600  0.43260900  1
  Cd  Cd39  1  0.25000000  0.96141800  0.40883600  1
  Cd  Cd40  1  0.75000000  0.89572400  0.44830700  1
  Cd  Cd41  1  0.75000000  0.53758700  0.42453400  1
  Cd  Cd42  1  0.25000000  0.24812700  0.36118000  1
  Cd  Cd43  1  0.25000000  0.88999000  0.33740800  1
  Cd  Cd44  1  0.75000000  0.82429600  0.37687800  1
  Cd  Cd45  1  0.75000000  0.46615800  0.35310500  1
  Cd  Cd46  1  0.25000000  0.17669900  0.28975200  1
  Cd  Cd47  1  0.25000000  0.81856100  0.26597900  1
  Cd  Cd48  1  0.75000000  0.75286700  0.30544900  1
  Cd  Cd49  1  0.75000000  0.39473000  0.28167700  1
  Cd  Cd50  1  0.25000000  0.10527000  0.21832300  1
  Cd  Cd51  1  0.25000000  0.74713300  0.19455100  1
  Cd  Cd52  1  0.75000000  0.68143900  0.23402100  1
  Cd  Cd53  1  0.75000000  0.32330100  0.21024800  1
