# generated using pymatgen
data_Sm2Mg
_symmetry_space_group_name_H-M   'P 1'
_cell_length_a   3.79076100
_cell_length_b   18.24769137
_cell_length_c   42.84868300
_cell_angle_alpha   96.05477005
_cell_angle_beta   90.00000000
_cell_angle_gamma   90.00000000
_symmetry_Int_Tables_number   1
_chemical_formula_structural   Sm2Mg
_chemical_formula_sum   'Sm40 Mg20'
_cell_volume   2947.42201632
_cell_formula_units_Z   20
loop_
 _symmetry_equiv_pos_site_id
 _symmetry_equiv_pos_as_xyz
  1  'x, y, z'
loop_
 _atom_site_type_symbol
 _atom_site_label
 _atom_site_symmetry_multiplicity
 _atom_site_fract_x
 _atom_site_fract_y
 _atom_site_fract_z
 _atom_site_occupancy
  Sm  Sm0  1  1.00000000  0.01570000  0.29240000  1
  Sm  Sm1  1  0.50000000  0.73119800  0.19018600  1
  Sm  Sm2  1  0.50000000  0.67180000  0.27010000  1
  Sm  Sm3  1  0.00000000  0.83130200  0.24731400  1
  Sm  Sm4  1  0.50000000  0.45320000  0.22990000  1
  Sm  Sm5  1  1.00000000  0.29369800  0.25268600  1
  Sm  Sm6  1  1.00000000  0.10930000  0.20760000  1
  Sm  Sm7  1  0.50000000  0.39380200  0.30981400  1
  Sm  Sm8  1  0.00000000  0.14070000  0.41740000  1
  Sm  Sm9  1  0.50000000  0.85619800  0.31518600  1
  Sm  Sm10  1  0.50000000  0.79680000  0.39510000  1
  Sm  Sm11  1  1.00000000  0.95630200  0.37231400  1
  Sm  Sm12  1  0.50000000  0.57820000  0.35490000  1
  Sm  Sm13  1  0.00000000  0.41869800  0.37768600  1
  Sm  Sm14  1  0.00000000  0.23430000  0.33260000  1
  Sm  Sm15  1  0.50000000  0.51880200  0.43481400  1
  Sm  Sm16  1  1.00000000  0.26570000  0.54240000  1
  Sm  Sm17  1  0.50000000  0.98119800  0.44018600  1
  Sm  Sm18  1  0.50000000  0.92180000  0.52010000  1
  Sm  Sm19  1  1.00000000  0.08130200  0.49731400  1
  Sm  Sm20  1  0.50000000  0.70320000  0.47990000  1
  Sm  Sm21  1  0.00000000  0.54369800  0.50268600  1
  Sm  Sm22  1  1.00000000  0.35930000  0.45760000  1
  Sm  Sm23  1  0.50000000  0.64380200  0.55981400  1
  Sm  Sm24  1  1.00000000  0.39070000  0.66740000  1
  Sm  Sm25  1  0.50000000  0.10619800  0.56518600  1
  Sm  Sm26  1  0.50000000  0.04680000  0.64510000  1
  Sm  Sm27  1  0.00000000  0.20630200  0.62231400  1
  Sm  Sm28  1  0.50000000  0.82820000  0.60490000  1
  Sm  Sm29  1  0.00000000  0.66869800  0.62768600  1
  Sm  Sm30  1  0.00000000  0.48430000  0.58260000  1
  Sm  Sm31  1  0.50000000  0.76880200  0.68481400  1
  Sm  Sm32  1  1.00000000  0.51570000  0.79240000  1
  Sm  Sm33  1  0.50000000  0.23119800  0.69018600  1
  Sm  Sm34  1  0.50000000  0.17180000  0.77010000  1
  Sm  Sm35  1  0.00000000  0.33130200  0.74731400  1
  Sm  Sm36  1  0.50000000  0.95320000  0.72990000  1
  Sm  Sm37  1  1.00000000  0.79369800  0.75268600  1
  Sm  Sm38  1  0.00000000  0.60930000  0.70760000  1
  Sm  Sm39  1  0.50000000  0.89380200  0.80981400  1
  Mg  Mg40  1  1.00000000  0.59096500  0.21021900  1
  Mg  Mg41  1  0.50000000  0.97153500  0.22728100  1
  Mg  Mg42  1  0.50000000  0.15346500  0.27271900  1
  Mg  Mg43  1  1.00000000  0.53403500  0.28978100  1
  Mg  Mg44  1  1.00000000  0.71596500  0.33521900  1
  Mg  Mg45  1  0.50000000  0.09653500  0.35228100  1
  Mg  Mg46  1  0.50000000  0.27846500  0.39771900  1
  Mg  Mg47  1  1.00000000  0.65903500  0.41478100  1
  Mg  Mg48  1  1.00000000  0.84096500  0.46021900  1
  Mg  Mg49  1  0.50000000  0.22153500  0.47728100  1
  Mg  Mg50  1  0.50000000  0.40346500  0.52271900  1
  Mg  Mg51  1  1.00000000  0.78403500  0.53978100  1
  Mg  Mg52  1  1.00000000  0.96596500  0.58521900  1
  Mg  Mg53  1  0.50000000  0.34653500  0.60228100  1
  Mg  Mg54  1  0.50000000  0.52846500  0.64771900  1
  Mg  Mg55  1  1.00000000  0.90903500  0.66478100  1
  Mg  Mg56  1  1.00000000  0.09096500  0.71021900  1
  Mg  Mg57  1  0.50000000  0.47153500  0.72728100  1
  Mg  Mg58  1  0.50000000  0.65346500  0.77271900  1
  Mg  Mg59  1  1.00000000  0.03403500  0.78978100  1
