# generated using pymatgen
data_Mg11Zn23
_symmetry_space_group_name_H-M   'P 1'
_cell_length_a   5.07402260
_cell_length_b   13.26606241
_cell_length_c   57.00757700
_cell_angle_alpha   92.18610401
_cell_angle_beta   87.66012493
_cell_angle_gamma   100.62858194
_symmetry_Int_Tables_number   1
_chemical_formula_structural   Mg11Zn23
_chemical_formula_sum   'Mg22 Zn46'
_cell_volume   3766.49990850
_cell_formula_units_Z   2
loop_
 _symmetry_equiv_pos_site_id
 _symmetry_equiv_pos_as_xyz
  1  'x, y, z'
loop_
 _atom_site_type_symbol
 _atom_site_label
 _atom_site_symmetry_multiplicity
 _atom_site_fract_x
 _atom_site_fract_y
 _atom_site_fract_z
 _atom_site_occupancy
  Mg  Mg0  1  0.25154100  0.62474500  0.37950100  1
  Mg  Mg1  1  0.46104100  0.99157200  0.33290200  1
  Mg  Mg2  1  0.56296500  0.37239400  0.49262500  1
  Mg  Mg3  1  0.80143400  0.74546300  0.39365000  1
  Mg  Mg4  1  0.93407200  0.91947500  0.30508400  1
  Mg  Mg5  1  0.12695100  0.41543300  0.41155900  1
  Mg  Mg6  1  0.81746000  0.67509400  0.29868200  1
  Mg  Mg7  1  0.89995500  0.95592600  0.41544100  1
  Mg  Mg8  1  0.25415000  0.57501200  0.32359200  1
  Mg  Mg9  1  0.76731700  0.78191400  0.50400700  1
  Mg  Mg10  1  0.13842400  0.32899400  0.31646600  1
  Mg  Mg11  1  0.44723900  0.12637700  0.48549900  1
  Mg  Mg12  1  0.38267200  0.88807500  0.38077300  1
  Mg  Mg13  1  0.12900300  0.46949800  0.46733800  1
  Mg  Mg14  1  0.57238600  0.23189000  0.34175300  1
  Mg  Mg15  1  0.13392900  0.27629500  0.26040900  1
  Mg  Mg16  1  0.44984800  0.07664400  0.42959000  1
  Mg  Mg17  1  0.57443800  0.28595600  0.39753200  1
  Mg  Mg18  1  0.24034800  0.70981600  0.47618900  1
  Mg  Mg19  1  0.31871700  0.81331300  0.42831800  1
  Mg  Mg20  1  0.56746000  0.42509400  0.54868200  1
  Mg  Mg21  1  0.88392900  0.02629500  0.51040900  1
  Zn  Zn22  1  0.38132600  0.80182700  0.30261800  1
  Zn  Zn23  1  0.91495600  0.93210500  0.35889200  1
  Zn  Zn24  1  0.68826300  0.44857000  0.32025900  1
  Zn  Zn25  1  0.11159000  0.93334800  0.46662300  1
  Zn  Zn26  1  0.80062900  0.13506900  0.29873600  1
  Zn  Zn27  1  0.09571000  0.77243800  0.34216300  1
  Zn  Zn28  1  0.97569400  0.47569400  0.27954500  1
  Zn  Zn29  1  0.57006300  0.14956200  0.25647300  1
  Zn  Zn30  1  0.07164500  0.25993500  0.37027200  1
  Zn  Zn31  1  0.65701000  0.81597200  0.26032600  1
  Zn  Zn32  1  0.91342100  0.42544900  0.36066500  1
  Zn  Zn33  1  0.69017700  0.51870800  0.39534500  1
  Zn  Zn34  1  0.31515000  0.64703600  0.27114500  1
  Zn  Zn35  1  0.68268900  0.59260700  0.47145100  1
  Zn  Zn36  1  0.78643300  0.76928400  0.45019900  1
  Zn  Zn37  1  0.62974300  0.44145400  0.43881900  1
  Zn  Zn38  1  0.46077600  0.61407700  0.42946000  1
  Zn  Zn39  1  0.29437900  0.13541700  0.29876500  1
  Zn  Zn40  1  0.60567900  0.92895100  0.46692800  1
  Zn  Zn41  1  0.63623900  0.30435300  0.28794600  1
  Zn  Zn42  1  0.24061300  0.08731200  0.37963100  1
  Zn  Zn43  1  0.15076000  0.81632000  0.26035400  1
  Zn  Zn44  1  0.47569400  0.47569400  0.27954500  1
  Zn  Zn45  1  0.75867300  0.60168500  0.35068000  1
  Zn  Zn46  1  0.40847400  0.42381200  0.36079600  1
  Zn  Zn47  1  0.97595000  0.61717300  0.42900500  1
  Zn  Zn48  1  0.94271600  0.09970400  0.45841100  1
  Zn  Zn49  1  0.72543800  0.08421600  0.38008600  1
  Zn  Zn50  1  0.01869900  0.10878100  0.33764000  1
  Zn  Zn51  1  0.29291500  0.27757700  0.44829500  1
  Zn  Zn52  1  0.58979900  0.76804000  0.34246800  1
  Zn  Zn53  1  0.47569400  0.97569400  0.27954500  1
  Zn  Zn54  1  0.78796800  0.27594000  0.44842600  1
  Zn  Zn55  1  0.01121200  0.18268100  0.41374600  1
  Zn  Zn56  1  0.01312600  0.25281900  0.48883200  1
  Zn  Zn57  1  0.13132600  0.55182700  0.55261800  1
  Zn  Zn58  1  0.55062900  0.88506900  0.54873600  1
  Zn  Zn59  1  0.72569400  0.22569400  0.52954500  1
  Zn  Zn60  1  0.32006300  0.89956200  0.50647300  1
  Zn  Zn61  1  0.40701000  0.56597200  0.51032600  1
  Zn  Zn62  1  0.06515000  0.39703600  0.52114500  1
  Zn  Zn63  1  0.04437900  0.88541700  0.54876500  1
  Zn  Zn64  1  0.38623900  0.05435300  0.53794600  1
  Zn  Zn65  1  0.90076000  0.56632000  0.51035400  1
  Zn  Zn66  1  0.22569400  0.22569400  0.52954500  1
  Zn  Zn67  1  0.22569400  0.72569400  0.52954500  1
