# generated using pymatgen
data_Mg29Ir42
_symmetry_space_group_name_H-M   'P 1'
_cell_length_a   9.72091470
_cell_length_b   10.02721169
_cell_length_c   42.99921300
_cell_angle_alpha   94.02267208
_cell_angle_beta   94.30460560
_cell_angle_gamma   92.31047724
_symmetry_Int_Tables_number   1
_chemical_formula_structural   Mg29Ir42
_chemical_formula_sum   'Mg58 Ir84'
_cell_volume   4164.79203527
_cell_formula_units_Z   2
loop_
 _symmetry_equiv_pos_site_id
 _symmetry_equiv_pos_as_xyz
  1  'x, y, z'
loop_
 _atom_site_type_symbol
 _atom_site_label
 _atom_site_symmetry_multiplicity
 _atom_site_fract_x
 _atom_site_fract_y
 _atom_site_fract_z
 _atom_site_occupancy
  Mg  Mg0  1  0.58518700  0.23775500  0.24752000  1
  Mg  Mg1  1  0.73277000  0.98730900  0.22048000  1
  Mg  Mg2  1  0.99363100  0.66447500  0.29021300  1
  Mg  Mg3  1  0.22432600  0.86059000  0.27778700  1
  Mg  Mg4  1  0.60098500  0.48646000  0.21047300  1
  Mg  Mg5  1  0.71697200  0.73860500  0.25752700  1
  Mg  Mg6  1  0.30682000  0.13732100  0.24155900  1
  Mg  Mg7  1  0.01113700  0.08774300  0.22644100  1
  Mg  Mg8  1  0.08716200  0.38323200  0.26375300  1
  Mg  Mg9  1  0.23079500  0.84183200  0.20424700  1
  Mg  Mg10  1  0.48518700  0.53775500  0.34752000  1
  Mg  Mg11  1  0.63277000  0.28730900  0.32048000  1
  Mg  Mg12  1  0.89363100  0.96447500  0.39021300  1
  Mg  Mg13  1  0.12432600  0.16059000  0.37778700  1
  Mg  Mg14  1  0.50098500  0.78646000  0.31047300  1
  Mg  Mg15  1  0.61697200  0.03860500  0.35752700  1
  Mg  Mg16  1  0.20682000  0.43732100  0.34155900  1
  Mg  Mg17  1  0.91113700  0.38774300  0.32644100  1
  Mg  Mg18  1  0.98716200  0.68323200  0.36375300  1
  Mg  Mg19  1  0.13079500  0.14183200  0.30424700  1
  Mg  Mg20  1  0.38518700  0.83775500  0.44752000  1
  Mg  Mg21  1  0.53277000  0.58730900  0.42048000  1
  Mg  Mg22  1  0.79363100  0.26447500  0.49021300  1
  Mg  Mg23  1  0.02432600  0.46059000  0.47778700  1
  Mg  Mg24  1  0.40098500  0.08646000  0.41047300  1
  Mg  Mg25  1  0.51697200  0.33860500  0.45752700  1
  Mg  Mg26  1  0.10682000  0.73732100  0.44155900  1
  Mg  Mg27  1  0.81113700  0.68774300  0.42644100  1
  Mg  Mg28  1  0.88716200  0.98323200  0.46375300  1
  Mg  Mg29  1  0.03079500  0.44183200  0.40424700  1
  Mg  Mg30  1  0.28518700  0.13775500  0.54752000  1
  Mg  Mg31  1  0.43277000  0.88730900  0.52048000  1
  Mg  Mg32  1  0.69363100  0.56447500  0.59021300  1
  Mg  Mg33  1  0.92432600  0.76059000  0.57778700  1
  Mg  Mg34  1  0.30098500  0.38646000  0.51047300  1
  Mg  Mg35  1  0.41697200  0.63860500  0.55752700  1
  Mg  Mg36  1  0.00682000  0.03732100  0.54155900  1
  Mg  Mg37  1  0.71113700  0.98774300  0.52644100  1
  Mg  Mg38  1  0.78716200  0.28323200  0.56375300  1
  Mg  Mg39  1  0.93079500  0.74183200  0.50424700  1
  Mg  Mg40  1  0.18518700  0.43775500  0.64752000  1
  Mg  Mg41  1  0.33277000  0.18730900  0.62048000  1
  Mg  Mg42  1  0.59363100  0.86447500  0.69021300  1
  Mg  Mg43  1  0.82432600  0.06059000  0.67778700  1
  Mg  Mg44  1  0.20098500  0.68646000  0.61047300  1
  Mg  Mg45  1  0.31697200  0.93860500  0.65752700  1
  Mg  Mg46  1  0.90682000  0.33732100  0.64155900  1
  Mg  Mg47  1  0.61113700  0.28774300  0.62644100  1
  Mg  Mg48  1  0.68716200  0.58323200  0.66375300  1
  Mg  Mg49  1  0.83079500  0.04183200  0.60424700  1
  Mg  Mg50  1  0.08518700  0.73775500  0.74752000  1
  Mg  Mg51  1  0.23277000  0.48730900  0.72048000  1
  Mg  Mg52  1  0.10098500  0.98646000  0.71047300  1
  Mg  Mg53  1  0.21697200  0.23860500  0.75752700  1
  Mg  Mg54  1  0.80682000  0.63732100  0.74155900  1
  Mg  Mg55  1  0.51113700  0.58774300  0.72644100  1
  Mg  Mg56  1  0.58716200  0.88323200  0.76375300  1
  Mg  Mg57  1  0.73079500  0.34183200  0.70424700  1
  Ir  Ir58  1  0.36094100  0.32169300  0.29428000  1
  Ir  Ir59  1  0.85701600  0.20337100  0.27372000  1
  Ir  Ir60  1  0.83788700  0.29767200  0.21920400  1
  Ir  Ir61  1  0.48007000  0.92739200  0.24879600  1
  Ir  Ir62  1  0.53016700  0.77710000  0.19869800  1
  Ir  Ir63  1  0.78779000  0.44796500  0.26930200  1
  Ir  Ir64  1  0.15897900  0.61253200  0.23400000  1
  Ir  Ir65  1  0.67295000  0.01785900  0.28810100  1
  Ir  Ir66  1  0.54500700  0.50720500  0.27989900  1
  Ir  Ir67  1  0.89759300  0.54860300  0.22372900  1
  Ir  Ir68  1  0.42036400  0.67646100  0.24427100  1
  Ir  Ir69  1  0.28442100  0.57671600  0.29009200  1
  Ir  Ir70  1  0.93353600  0.94834900  0.27790800  1
  Ir  Ir71  1  0.98032300  0.80798500  0.23112000  1
  Ir  Ir72  1  0.33763400  0.41707900  0.23688000  1
  Ir  Ir73  1  0.26094100  0.62169300  0.39428000  1
  Ir  Ir74  1  0.75701600  0.50337100  0.37372000  1
  Ir  Ir75  1  0.73788700  0.59767200  0.31920400  1
  Ir  Ir76  1  0.38007000  0.22739200  0.34879600  1
  Ir  Ir77  1  0.43016700  0.07710000  0.29869800  1
  Ir  Ir78  1  0.68779000  0.74796500  0.36930200  1
  Ir  Ir79  1  0.05897900  0.91253200  0.33400000  1
  Ir  Ir80  1  0.57295000  0.31785900  0.38810100  1
  Ir  Ir81  1  0.44500700  0.80720500  0.37989900  1
  Ir  Ir82  1  0.79759300  0.84860300  0.32372900  1
  Ir  Ir83  1  0.32036400  0.97646100  0.34427100  1
  Ir  Ir84  1  0.18442100  0.87671600  0.39009200  1
  Ir  Ir85  1  0.83353600  0.24834900  0.37790800  1
  Ir  Ir86  1  0.88032300  0.10798500  0.33112000  1
  Ir  Ir87  1  0.23763400  0.71707900  0.33688000  1
  Ir  Ir88  1  0.16094100  0.92169300  0.49428000  1
  Ir  Ir89  1  0.65701600  0.80337100  0.47372000  1
  Ir  Ir90  1  0.63788700  0.89767200  0.41920400  1
  Ir  Ir91  1  0.28007000  0.52739200  0.44879600  1
  Ir  Ir92  1  0.33016700  0.37710000  0.39869800  1
  Ir  Ir93  1  0.58779000  0.04796500  0.46930200  1
  Ir  Ir94  1  0.95897900  0.21253200  0.43400000  1
  Ir  Ir95  1  0.47295000  0.61785900  0.48810100  1
  Ir  Ir96  1  0.34500700  0.10720500  0.47989900  1
  Ir  Ir97  1  0.69759300  0.14860300  0.42372900  1
  Ir  Ir98  1  0.22036400  0.27646100  0.44427100  1
  Ir  Ir99  1  0.08442100  0.17671600  0.49009200  1
  Ir  Ir100  1  0.73353600  0.54834900  0.47790800  1
  Ir  Ir101  1  0.78032300  0.40798500  0.43112000  1
  Ir  Ir102  1  0.13763400  0.01707900  0.43688000  1
  Ir  Ir103  1  0.06094100  0.22169300  0.59428000  1
  Ir  Ir104  1  0.55701600  0.10337100  0.57372000  1
  Ir  Ir105  1  0.53788700  0.19767200  0.51920400  1
  Ir  Ir106  1  0.18007000  0.82739200  0.54879600  1
  Ir  Ir107  1  0.23016700  0.67710000  0.49869800  1
  Ir  Ir108  1  0.48779000  0.34796500  0.56930200  1
  Ir  Ir109  1  0.85897900  0.51253200  0.53400000  1
  Ir  Ir110  1  0.37295000  0.91785900  0.58810100  1
  Ir  Ir111  1  0.24500700  0.40720500  0.57989900  1
  Ir  Ir112  1  0.59759300  0.44860300  0.52372900  1
  Ir  Ir113  1  0.12036400  0.57646100  0.54427100  1
  Ir  Ir114  1  0.98442100  0.47671600  0.59009200  1
  Ir  Ir115  1  0.63353600  0.84834900  0.57790800  1
  Ir  Ir116  1  0.68032300  0.70798500  0.53112000  1
  Ir  Ir117  1  0.03763400  0.31707900  0.53688000  1
  Ir  Ir118  1  0.96094100  0.52169300  0.69428000  1
  Ir  Ir119  1  0.45701600  0.40337100  0.67372000  1
  Ir  Ir120  1  0.43788700  0.49767200  0.61920400  1
  Ir  Ir121  1  0.08007000  0.12739200  0.64879600  1
  Ir  Ir122  1  0.13016700  0.97710000  0.59869800  1
  Ir  Ir123  1  0.38779000  0.64796500  0.66930200  1
  Ir  Ir124  1  0.75897900  0.81253200  0.63400000  1
  Ir  Ir125  1  0.27295000  0.21785900  0.68810100  1
  Ir  Ir126  1  0.14500700  0.70720500  0.67989900  1
  Ir  Ir127  1  0.49759300  0.74860300  0.62372900  1
  Ir  Ir128  1  0.02036400  0.87646100  0.64427100  1
  Ir  Ir129  1  0.88442100  0.77671600  0.69009200  1
  Ir  Ir130  1  0.53353600  0.14834900  0.67790800  1
  Ir  Ir131  1  0.58032300  0.00798500  0.63112000  1
  Ir  Ir132  1  0.93763400  0.61707900  0.63688000  1
  Ir  Ir133  1  0.33788700  0.79767200  0.71920400  1
  Ir  Ir134  1  0.98007000  0.42739200  0.74879600  1
  Ir  Ir135  1  0.03016700  0.27710000  0.69869800  1
  Ir  Ir136  1  0.28779000  0.94796500  0.76930200  1
  Ir  Ir137  1  0.65897900  0.11253200  0.73400000  1
  Ir  Ir138  1  0.39759300  0.04860300  0.72372900  1
  Ir  Ir139  1  0.92036400  0.17646100  0.74427100  1
  Ir  Ir140  1  0.48032300  0.30798500  0.73112000  1
  Ir  Ir141  1  0.83763400  0.91707900  0.73688000  1
