# generated using pymatgen
data_Er2Mg
_symmetry_space_group_name_H-M   'P 1'
_cell_length_a   3.65070000
_cell_length_b   8.70370637
_cell_length_c   43.41358900
_cell_angle_alpha   90.00000000
_cell_angle_beta   90.00000000
_cell_angle_gamma   102.10600261
_symmetry_Int_Tables_number   1
_chemical_formula_structural   Er2Mg
_chemical_formula_sum   'Er20 Mg10'
_cell_volume   1348.77310750
_cell_formula_units_Z   10
loop_
 _symmetry_equiv_pos_site_id
 _symmetry_equiv_pos_as_xyz
  1  'x, y, z'
loop_
 _atom_site_type_symbol
 _atom_site_label
 _atom_site_symmetry_multiplicity
 _atom_site_fract_x
 _atom_site_fract_y
 _atom_site_fract_z
 _atom_site_occupancy
  Er  Er0  1  0.40585200  0.81170500  0.28125000  1
  Er  Er1  1  0.72693300  0.45386500  0.28125000  1
  Er  Er2  1  0.59414800  0.18829500  0.21875000  1
  Er  Er3  1  0.27306700  0.54613500  0.21875000  1
  Er  Er4  1  0.40585200  0.81170500  0.40625000  1
  Er  Er5  1  0.72693300  0.45386500  0.40625000  1
  Er  Er6  1  0.59414800  0.18829500  0.34375000  1
  Er  Er7  1  0.27306700  0.54613500  0.34375000  1
  Er  Er8  1  0.40585200  0.81170500  0.53125000  1
  Er  Er9  1  0.72693300  0.45386500  0.53125000  1
  Er  Er10  1  0.59414800  0.18829500  0.46875000  1
  Er  Er11  1  0.27306700  0.54613500  0.46875000  1
  Er  Er12  1  0.40585200  0.81170500  0.65625000  1
  Er  Er13  1  0.72693300  0.45386500  0.65625000  1
  Er  Er14  1  0.59414800  0.18829500  0.59375000  1
  Er  Er15  1  0.27306700  0.54613500  0.59375000  1
  Er  Er16  1  0.40585200  0.81170500  0.78125000  1
  Er  Er17  1  0.72693300  0.45386500  0.78125000  1
  Er  Er18  1  0.59414800  0.18829500  0.71875000  1
  Er  Er19  1  0.27306700  0.54613500  0.71875000  1
  Mg  Mg20  1  0.06552300  0.13104600  0.28125000  1
  Mg  Mg21  1  0.93447700  0.86895400  0.21875000  1
  Mg  Mg22  1  0.06552300  0.13104600  0.40625000  1
  Mg  Mg23  1  0.93447700  0.86895400  0.34375000  1
  Mg  Mg24  1  0.06552300  0.13104600  0.53125000  1
  Mg  Mg25  1  0.93447700  0.86895400  0.46875000  1
  Mg  Mg26  1  0.06552300  0.13104600  0.65625000  1
  Mg  Mg27  1  0.93447700  0.86895400  0.59375000  1
  Mg  Mg28  1  0.06552300  0.13104600  0.78125000  1
  Mg  Mg29  1  0.93447700  0.86895400  0.71875000  1
