# generated using pymatgen
data_Mg9Ga25
_symmetry_space_group_name_H-M   'P 1'
_cell_length_a   4.21077900
_cell_length_b   5.95494027
_cell_length_c   44.76119000
_cell_angle_alpha   86.18592261
_cell_angle_beta   90.00000000
_cell_angle_gamma   90.00000000
_symmetry_Int_Tables_number   1
_chemical_formula_structural   Mg9Ga25
_chemical_formula_sum   'Mg9 Ga25'
_cell_volume   1119.89813204
_cell_formula_units_Z   1
loop_
 _symmetry_equiv_pos_site_id
 _symmetry_equiv_pos_as_xyz
  1  'x, y, z'
loop_
 _atom_site_type_symbol
 _atom_site_label
 _atom_site_symmetry_multiplicity
 _atom_site_fract_x
 _atom_site_fract_y
 _atom_site_fract_z
 _atom_site_occupancy
  Mg  Mg0  1  0.00000000  0.35000000  0.25000000  1
  Mg  Mg1  1  0.00000000  0.81666700  0.31666700  1
  Mg  Mg2  1  1.00000000  0.28333300  0.38333300  1
  Mg  Mg3  1  0.00000000  0.75000000  0.45000000  1
  Mg  Mg4  1  0.00000000  0.21666700  0.51666700  1
  Mg  Mg5  1  0.00000000  0.68333300  0.58333300  1
  Mg  Mg6  1  0.00000000  0.15000000  0.65000000  1
  Mg  Mg7  1  0.00000000  0.61666700  0.71666700  1
  Mg  Mg8  1  0.00000000  0.08333300  0.78333300  1
  Ga  Ga9  1  0.00000000  0.85000000  0.25000000  1
  Ga  Ga10  1  0.00000000  0.31666700  0.31666700  1
  Ga  Ga11  1  0.50000000  0.08333300  0.28333300  1
  Ga  Ga12  1  0.50000000  0.58333300  0.28333300  1
  Ga  Ga13  1  0.00000000  0.78333300  0.38333300  1
  Ga  Ga14  1  0.50000000  0.55000000  0.35000000  1
  Ga  Ga15  1  0.50000000  0.05000000  0.35000000  1
  Ga  Ga16  1  0.00000000  0.25000000  0.45000000  1
  Ga  Ga17  1  0.50000000  0.01666700  0.41666700  1
  Ga  Ga18  1  0.50000000  0.51666700  0.41666700  1
  Ga  Ga19  1  0.00000000  0.71666700  0.51666700  1
  Ga  Ga20  1  0.50000000  0.48333300  0.48333300  1
  Ga  Ga21  1  0.50000000  0.98333300  0.48333300  1
  Ga  Ga22  1  0.00000000  0.18333300  0.58333300  1
  Ga  Ga23  1  0.50000000  0.95000000  0.55000000  1
  Ga  Ga24  1  0.50000000  0.45000000  0.55000000  1
  Ga  Ga25  1  0.00000000  0.65000000  0.65000000  1
  Ga  Ga26  1  0.50000000  0.41666700  0.61666700  1
  Ga  Ga27  1  0.50000000  0.91666700  0.61666700  1
  Ga  Ga28  1  0.00000000  0.11666700  0.71666700  1
  Ga  Ga29  1  0.50000000  0.88333300  0.68333300  1
  Ga  Ga30  1  0.50000000  0.38333300  0.68333300  1
  Ga  Ga31  1  0.00000000  0.58333300  0.78333300  1
  Ga  Ga32  1  0.50000000  0.35000000  0.75000000  1
  Ga  Ga33  1  0.50000000  0.85000000  0.75000000  1
