# generated using pymatgen
data_Mg6P23
_symmetry_space_group_name_H-M   'P 1'
_cell_length_a   5.19237519
_cell_length_b   9.16199237
_cell_length_c   42.38861300
_cell_angle_alpha   92.43695802
_cell_angle_beta   87.58880221
_cell_angle_gamma   97.12465569
_symmetry_Int_Tables_number   1
_chemical_formula_structural   Mg6P23
_chemical_formula_sum   'Mg12 P46'
_cell_volume   1997.77481472
_cell_formula_units_Z   2
loop_
 _symmetry_equiv_pos_site_id
 _symmetry_equiv_pos_as_xyz
  1  'x, y, z'
loop_
 _atom_site_type_symbol
 _atom_site_label
 _atom_site_symmetry_multiplicity
 _atom_site_fract_x
 _atom_site_fract_y
 _atom_site_fract_z
 _atom_site_occupancy
  Mg  Mg0  1  0.94726100  0.84178300  0.26000000  1
  Mg  Mg1  1  0.94726100  0.34178300  0.26000000  1
  Mg  Mg2  1  0.84726100  0.54178300  0.36000000  1
  Mg  Mg3  1  0.84726100  0.04178300  0.36000000  1
  Mg  Mg4  1  0.74726100  0.24178300  0.46000000  1
  Mg  Mg5  1  0.74726100  0.74178300  0.46000000  1
  Mg  Mg6  1  0.64726100  0.94178300  0.56000000  1
  Mg  Mg7  1  0.64726100  0.44178300  0.56000000  1
  Mg  Mg8  1  0.54726100  0.64178300  0.66000000  1
  Mg  Mg9  1  0.54726100  0.14178300  0.66000000  1
  Mg  Mg10  1  0.44726100  0.34178300  0.76000000  1
  Mg  Mg11  1  0.44726100  0.84178300  0.76000000  1
  P  P12  1  0.64889800  0.45187800  0.30540900  1
  P  P13  1  0.20407000  0.60702800  0.25614500  1
  P  P14  1  0.24562400  0.23168900  0.21459100  1
  P  P15  1  0.69045200  0.07653900  0.26385500  1
  P  P16  1  0.37335500  0.02893900  0.23079500  1
  P  P17  1  0.52116700  0.65462800  0.28920500  1
  P  P18  1  0.54889800  0.15187800  0.40540900  1
  P  P19  1  0.10407000  0.30702800  0.35614500  1
  P  P20  1  0.14562400  0.93168900  0.31459100  1
  P  P21  1  0.59045200  0.77653900  0.36385500  1
  P  P22  1  0.49948600  0.08958400  0.31088700  1
  P  P23  1  0.27335500  0.72893900  0.33079500  1
  P  P24  1  0.29503600  0.29398300  0.30911300  1
  P  P25  1  0.42116700  0.35462800  0.38920500  1
  P  P26  1  0.44889800  0.85187800  0.50540900  1
  P  P27  1  0.00407000  0.00702800  0.45614500  1
  P  P28  1  0.04562400  0.63168900  0.41459100  1
  P  P29  1  0.49045200  0.47653900  0.46385500  1
  P  P30  1  0.39948600  0.78958400  0.41088700  1
  P  P31  1  0.17335500  0.42893900  0.43079500  1
  P  P32  1  0.19503600  0.99398300  0.40911300  1
  P  P33  1  0.32116700  0.05462800  0.48920500  1
  P  P34  1  0.34889800  0.55187800  0.60540900  1
  P  P35  1  0.90407000  0.70702800  0.55614500  1
  P  P36  1  0.94562400  0.33168900  0.51459100  1
  P  P37  1  0.39045200  0.17653900  0.56385500  1
  P  P38  1  0.29948600  0.48958400  0.51088700  1
  P  P39  1  0.07335500  0.12893900  0.53079500  1
  P  P40  1  0.09503600  0.69398300  0.50911300  1
  P  P41  1  0.22116700  0.75462800  0.58920500  1
  P  P42  1  0.24889800  0.25187800  0.70540900  1
  P  P43  1  0.80407000  0.40702800  0.65614500  1
  P  P44  1  0.84562400  0.03168900  0.61459100  1
  P  P45  1  0.29045200  0.87653900  0.66385500  1
  P  P46  1  0.19948600  0.18958400  0.61088700  1
  P  P47  1  0.97335500  0.82893900  0.63079500  1
  P  P48  1  0.99503600  0.39398300  0.60911300  1
  P  P49  1  0.12116700  0.45462800  0.68920500  1
  P  P50  1  0.14889800  0.95187800  0.80540900  1
  P  P51  1  0.70407000  0.10702800  0.75614500  1
  P  P52  1  0.74562400  0.73168900  0.71459100  1
  P  P53  1  0.19045200  0.57653900  0.76385500  1
  P  P54  1  0.09948600  0.88958400  0.71088700  1
  P  P55  1  0.87335500  0.52893900  0.73079500  1
  P  P56  1  0.89503600  0.09398300  0.70911300  1
  P  P57  1  0.02116700  0.15462800  0.78920500  1
