# generated using pymatgen
data_Mg17Pd7
_symmetry_space_group_name_H-M   'P 1'
_cell_length_a   8.83883700
_cell_length_b   8.02302000
_cell_length_c   45.92794300
_cell_angle_alpha   90.00000000
_cell_angle_beta   90.00000000
_cell_angle_gamma   90.00000000
_symmetry_Int_Tables_number   1
_chemical_formula_structural   Mg17Pd7
_chemical_formula_sum   'Mg68 Pd28'
_cell_volume   3256.94177521
_cell_formula_units_Z   4
loop_
 _symmetry_equiv_pos_site_id
 _symmetry_equiv_pos_as_xyz
  1  'x, y, z'
loop_
 _atom_site_type_symbol
 _atom_site_label
 _atom_site_symmetry_multiplicity
 _atom_site_fract_x
 _atom_site_fract_y
 _atom_site_fract_z
 _atom_site_occupancy
  Mg  Mg0  1  0.32285100  0.93540600  0.25378900  1
  Mg  Mg1  1  0.11017600  0.93540600  0.18289800  1
  Mg  Mg2  1  0.89750100  0.93540600  0.25378900  1
  Mg  Mg3  1  0.89750100  0.06459400  0.31763900  1
  Mg  Mg4  1  0.61017600  0.06459400  0.22186400  1
  Mg  Mg5  1  0.32285100  0.06459400  0.31763900  1
  Mg  Mg6  1  0.89750100  0.43540600  0.31763900  1
  Mg  Mg7  1  0.61017600  0.43540600  0.22186400  1
  Mg  Mg8  1  0.32285100  0.43540600  0.31763900  1
  Mg  Mg9  1  0.32285100  0.56459400  0.25378900  1
  Mg  Mg10  1  0.11017600  0.56459400  0.18289800  1
  Mg  Mg11  1  0.89750100  0.56459400  0.25378900  1
  Mg  Mg12  1  0.80170000  0.75000000  0.19588400  1
  Mg  Mg13  1  0.11017600  0.75000000  0.29870900  1
  Mg  Mg14  1  0.41865200  0.75000000  0.19588400  1
  Mg  Mg15  1  0.91865200  0.25000000  0.20887800  1
  Mg  Mg16  1  0.11017600  0.25000000  0.27272000  1
  Mg  Mg17  1  0.30170000  0.25000000  0.20887800  1
  Mg  Mg18  1  0.61017600  0.00000000  0.28571400  1
  Mg  Mg19  1  0.61017600  0.50000000  0.28571400  1
  Mg  Mg20  1  0.82285100  0.93540600  0.42045600  1
  Mg  Mg21  1  0.61017600  0.93540600  0.34956400  1
  Mg  Mg22  1  0.39750100  0.93540600  0.42045600  1
  Mg  Mg23  1  0.39750100  0.06459400  0.48430600  1
  Mg  Mg24  1  0.11017600  0.06459400  0.38853100  1
  Mg  Mg25  1  0.82285100  0.06459400  0.48430600  1
  Mg  Mg26  1  0.39750100  0.43540600  0.48430600  1
  Mg  Mg27  1  0.11017600  0.43540600  0.38853100  1
  Mg  Mg28  1  0.82285100  0.43540600  0.48430600  1
  Mg  Mg29  1  0.82285100  0.56459400  0.42045600  1
  Mg  Mg30  1  0.61017600  0.56459400  0.34956400  1
  Mg  Mg31  1  0.39750100  0.56459400  0.42045600  1
  Mg  Mg32  1  0.30170000  0.75000000  0.36255000  1
  Mg  Mg33  1  0.61017600  0.75000000  0.46537600  1
  Mg  Mg34  1  0.91865200  0.75000000  0.36255000  1
  Mg  Mg35  1  0.41865200  0.25000000  0.37554500  1
  Mg  Mg36  1  0.61017600  0.25000000  0.43938600  1
  Mg  Mg37  1  0.80170000  0.25000000  0.37554500  1
  Mg  Mg38  1  0.11017600  0.00000000  0.45238100  1
  Mg  Mg39  1  0.11017600  0.50000000  0.45238100  1
  Mg  Mg40  1  0.32285100  0.93540600  0.58712300  1
  Mg  Mg41  1  0.11017600  0.93540600  0.51623100  1
  Mg  Mg42  1  0.89750100  0.93540600  0.58712300  1
  Mg  Mg43  1  0.89750100  0.06459400  0.65097300  1
  Mg  Mg44  1  0.61017600  0.06459400  0.55519800  1
  Mg  Mg45  1  0.32285100  0.06459400  0.65097300  1
  Mg  Mg46  1  0.89750100  0.43540600  0.65097300  1
  Mg  Mg47  1  0.61017600  0.43540600  0.55519800  1
  Mg  Mg48  1  0.32285100  0.43540600  0.65097300  1
  Mg  Mg49  1  0.32285100  0.56459400  0.58712300  1
  Mg  Mg50  1  0.11017600  0.56459400  0.51623100  1
  Mg  Mg51  1  0.89750100  0.56459400  0.58712300  1
  Mg  Mg52  1  0.80170000  0.75000000  0.52921700  1
  Mg  Mg53  1  0.11017600  0.75000000  0.63204200  1
  Mg  Mg54  1  0.41865200  0.75000000  0.52921700  1
  Mg  Mg55  1  0.91865200  0.25000000  0.54221200  1
  Mg  Mg56  1  0.11017600  0.25000000  0.60605300  1
  Mg  Mg57  1  0.30170000  0.25000000  0.54221200  1
  Mg  Mg58  1  0.61017600  0.00000000  0.61904800  1
  Mg  Mg59  1  0.61017600  0.50000000  0.61904800  1
  Mg  Mg60  1  0.61017600  0.93540600  0.68289800  1
  Mg  Mg61  1  0.11017600  0.06459400  0.72186400  1
  Mg  Mg62  1  0.11017600  0.43540600  0.72186400  1
  Mg  Mg63  1  0.61017600  0.56459400  0.68289800  1
  Mg  Mg64  1  0.30170000  0.75000000  0.69588400  1
  Mg  Mg65  1  0.91865200  0.75000000  0.69588400  1
  Mg  Mg66  1  0.41865200  0.25000000  0.70887800  1
  Mg  Mg67  1  0.80170000  0.25000000  0.70887800  1
  Pd  Pd68  1  0.79704100  0.75000000  0.30647700  1
  Pd  Pd69  1  0.61017600  0.75000000  0.24418900  1
  Pd  Pd70  1  0.42331100  0.75000000  0.30647700  1
  Pd  Pd71  1  0.42331100  0.25000000  0.26495200  1
  Pd  Pd72  1  0.11017600  0.25000000  0.16057300  1
  Pd  Pd73  1  0.79704100  0.25000000  0.26495200  1
  Pd  Pd74  1  0.11017600  0.75000000  0.23015900  1
  Pd  Pd75  1  0.61017600  0.25000000  0.17460300  1
  Pd  Pd76  1  0.29704100  0.75000000  0.47314400  1
  Pd  Pd77  1  0.11017600  0.75000000  0.41085500  1
  Pd  Pd78  1  0.92331100  0.75000000  0.47314400  1
  Pd  Pd79  1  0.92331100  0.25000000  0.43161800  1
  Pd  Pd80  1  0.61017600  0.25000000  0.32724000  1
  Pd  Pd81  1  0.29704100  0.25000000  0.43161800  1
  Pd  Pd82  1  0.61017600  0.75000000  0.39682500  1
  Pd  Pd83  1  0.11017600  0.25000000  0.34127000  1
  Pd  Pd84  1  0.79704100  0.75000000  0.63981000  1
  Pd  Pd85  1  0.61017600  0.75000000  0.57752200  1
  Pd  Pd86  1  0.42331100  0.75000000  0.63981000  1
  Pd  Pd87  1  0.42331100  0.25000000  0.59828500  1
  Pd  Pd88  1  0.11017600  0.25000000  0.49390600  1
  Pd  Pd89  1  0.79704100  0.25000000  0.59828500  1
  Pd  Pd90  1  0.11017600  0.75000000  0.56349200  1
  Pd  Pd91  1  0.61017600  0.25000000  0.50793700  1
  Pd  Pd92  1  0.11017600  0.75000000  0.74418900  1
  Pd  Pd93  1  0.61017600  0.25000000  0.66057300  1
  Pd  Pd94  1  0.61017600  0.75000000  0.73015900  1
  Pd  Pd95  1  0.11017600  0.25000000  0.67460300  1
