# generated using pymatgen
data_Mg106Zn191
_symmetry_space_group_name_H-M   'P 1'
_cell_length_a   13.26606255
_cell_length_b   15.58232770
_cell_length_c   46.38065300
_cell_angle_alpha   94.29618326
_cell_angle_beta   88.49627591
_cell_angle_gamma   99.94210053
_symmetry_Int_Tables_number   1
_chemical_formula_structural   Mg106Zn191
_chemical_formula_sum   'Mg106 Zn191'
_cell_volume   9416.24935325
_cell_formula_units_Z   1
loop_
 _symmetry_equiv_pos_site_id
 _symmetry_equiv_pos_as_xyz
  1  'x, y, z'
loop_
 _atom_site_type_symbol
 _atom_site_label
 _atom_site_symmetry_multiplicity
 _atom_site_fract_x
 _atom_site_fract_y
 _atom_site_fract_z
 _atom_site_occupancy
  Mg  Mg0  1  0.51267300  0.25521100  0.29526700  1
  Mg  Mg1  1  0.81240700  0.88495200  0.26962600  1
  Mg  Mg2  1  0.02391300  0.95136800  0.29037400  1
  Mg  Mg3  1  0.56165500  0.59447600  0.27986900  1
  Mg  Mg4  1  0.32364700  0.58110900  0.26473300  1
  Mg  Mg5  1  0.27466500  0.24184400  0.28013100  1
  Mg  Mg6  1  0.63960300  0.79041800  0.30756200  1
  Mg  Mg7  1  0.96218200  0.60637200  0.30521300  1
  Mg  Mg8  1  0.41267300  0.15521100  0.39526700  1
  Mg  Mg9  1  0.71240700  0.78495200  0.36962600  1
  Mg  Mg10  1  0.82887200  0.46170800  0.33860700  1
  Mg  Mg11  1  0.45877900  0.91508100  0.31113200  1
  Mg  Mg12  1  0.59295100  0.45096000  0.32374500  1
  Mg  Mg13  1  0.92391300  0.85136800  0.39037400  1
  Mg  Mg14  1  0.46165500  0.49447600  0.37986900  1
  Mg  Mg15  1  0.90744800  0.27461200  0.32139300  1
  Mg  Mg16  1  0.22364700  0.48110900  0.36473300  1
  Mg  Mg17  1  0.17466500  0.14184400  0.38013100  1
  Mg  Mg18  1  0.89045700  0.78176000  0.32131200  1
  Mg  Mg19  1  0.54053000  0.11010400  0.33922700  1
  Mg  Mg20  1  0.19579100  0.62621600  0.32077300  1
  Mg  Mg21  1  0.14336900  0.28536000  0.33625500  1
  Mg  Mg22  1  0.09671700  0.94590200  0.35243800  1
  Mg  Mg23  1  0.27754100  0.82123900  0.34886800  1
  Mg  Mg24  1  0.77413900  0.12994800  0.35478700  1
  Mg  Mg25  1  0.84586300  0.95456000  0.33868800  1
  Mg  Mg26  1  0.53960300  0.69041800  0.40756200  1
  Mg  Mg27  1  0.86218200  0.50637200  0.40521300  1
  Mg  Mg28  1  0.31267300  0.05521100  0.49526700  1
  Mg  Mg29  1  0.61240700  0.68495200  0.46962600  1
  Mg  Mg30  1  0.72887200  0.36170800  0.43860700  1
  Mg  Mg31  1  0.35877900  0.81508100  0.41113200  1
  Mg  Mg32  1  0.49295100  0.35096000  0.42374500  1
  Mg  Mg33  1  0.82391300  0.75136800  0.49037400  1
  Mg  Mg34  1  0.36165500  0.39447600  0.47986900  1
  Mg  Mg35  1  0.80744800  0.17461200  0.42139300  1
  Mg  Mg36  1  0.12364700  0.38110900  0.46473300  1
  Mg  Mg37  1  0.07466500  0.04184400  0.48013100  1
  Mg  Mg38  1  0.79045700  0.68176000  0.42131200  1
  Mg  Mg39  1  0.44053000  0.01010400  0.43922700  1
  Mg  Mg40  1  0.09579100  0.52621600  0.42077300  1
  Mg  Mg41  1  0.04336900  0.18536000  0.43625500  1
  Mg  Mg42  1  0.99671700  0.84590200  0.45243800  1
  Mg  Mg43  1  0.17754100  0.72123900  0.44886800  1
  Mg  Mg44  1  0.67413900  0.02994800  0.45478700  1
  Mg  Mg45  1  0.74586300  0.85456000  0.43868800  1
  Mg  Mg46  1  0.43960300  0.59041800  0.50756200  1
  Mg  Mg47  1  0.76218200  0.40637200  0.50521300  1
  Mg  Mg48  1  0.21267300  0.95521100  0.59526700  1
  Mg  Mg49  1  0.51240700  0.58495200  0.56962600  1
  Mg  Mg50  1  0.62887200  0.26170800  0.53860700  1
  Mg  Mg51  1  0.25877900  0.71508100  0.51113200  1
  Mg  Mg52  1  0.39295100  0.25096000  0.52374500  1
  Mg  Mg53  1  0.72391300  0.65136800  0.59037400  1
  Mg  Mg54  1  0.26165500  0.29447600  0.57986900  1
  Mg  Mg55  1  0.70744800  0.07461200  0.52139300  1
  Mg  Mg56  1  0.02364700  0.28110900  0.56473300  1
  Mg  Mg57  1  0.97466500  0.94184400  0.58013100  1
  Mg  Mg58  1  0.69045700  0.58176000  0.52131200  1
  Mg  Mg59  1  0.34053000  0.91010400  0.53922700  1
  Mg  Mg60  1  0.99579100  0.42621600  0.52077300  1
  Mg  Mg61  1  0.94336900  0.08536000  0.53625500  1
  Mg  Mg62  1  0.89671700  0.74590200  0.55243800  1
  Mg  Mg63  1  0.07754100  0.62123900  0.54886800  1
  Mg  Mg64  1  0.57413900  0.92994800  0.55478700  1
  Mg  Mg65  1  0.64586300  0.75456000  0.53868800  1
  Mg  Mg66  1  0.33960300  0.49041800  0.60756200  1
  Mg  Mg67  1  0.66218200  0.30637200  0.60521300  1
  Mg  Mg68  1  0.11267300  0.85521100  0.69526700  1
  Mg  Mg69  1  0.41240700  0.48495200  0.66962600  1
  Mg  Mg70  1  0.52887200  0.16170800  0.63860700  1
  Mg  Mg71  1  0.15877900  0.61508100  0.61113200  1
  Mg  Mg72  1  0.29295100  0.15096000  0.62374500  1
  Mg  Mg73  1  0.62391300  0.55136800  0.69037400  1
  Mg  Mg74  1  0.16165500  0.19447600  0.67986900  1
  Mg  Mg75  1  0.60744800  0.97461200  0.62139300  1
  Mg  Mg76  1  0.92364700  0.18110900  0.66473300  1
  Mg  Mg77  1  0.87466500  0.84184400  0.68013100  1
  Mg  Mg78  1  0.59045700  0.48176000  0.62131200  1
  Mg  Mg79  1  0.24053000  0.81010400  0.63922700  1
  Mg  Mg80  1  0.89579100  0.32621600  0.62077300  1
  Mg  Mg81  1  0.84336900  0.98536000  0.63625500  1
  Mg  Mg82  1  0.79671700  0.64590200  0.65243800  1
  Mg  Mg83  1  0.97754100  0.52123900  0.64886800  1
  Mg  Mg84  1  0.47413900  0.82994800  0.65478700  1
  Mg  Mg85  1  0.54586300  0.65456000  0.63868800  1
  Mg  Mg86  1  0.23960300  0.39041800  0.70756200  1
  Mg  Mg87  1  0.56218200  0.20637200  0.70521300  1
  Mg  Mg88  1  0.01267300  0.75521100  0.79526700  1
  Mg  Mg89  1  0.31240700  0.38495200  0.76962600  1
  Mg  Mg90  1  0.42887200  0.06170800  0.73860700  1
  Mg  Mg91  1  0.05877900  0.51508100  0.71113200  1
  Mg  Mg92  1  0.19295100  0.05096000  0.72374500  1
  Mg  Mg93  1  0.52391300  0.45136800  0.79037400  1
  Mg  Mg94  1  0.06165500  0.09447600  0.77986900  1
  Mg  Mg95  1  0.50744800  0.87461200  0.72139300  1
  Mg  Mg96  1  0.82364700  0.08110900  0.76473300  1
  Mg  Mg97  1  0.77466500  0.74184400  0.78013100  1
  Mg  Mg98  1  0.49045700  0.38176000  0.72131200  1
  Mg  Mg99  1  0.14053000  0.71010400  0.73922700  1
  Mg  Mg100  1  0.79579100  0.22621600  0.72077300  1
  Mg  Mg101  1  0.74336900  0.88536000  0.73625500  1
  Mg  Mg102  1  0.69671700  0.54590200  0.75243800  1
  Mg  Mg103  1  0.87754100  0.42123900  0.74886800  1
  Mg  Mg104  1  0.37413900  0.72994800  0.75478700  1
  Mg  Mg105  1  0.44586300  0.55456000  0.73868800  1
  Zn  Zn106  1  0.76526600  0.50835000  0.28209900  1
  Zn  Zn107  1  0.97031800  0.75194800  0.26360000  1
  Zn  Zn108  1  0.78421100  0.67531900  0.27331000  1
  Zn  Zn109  1  0.07105400  0.32797000  0.27790100  1
  Zn  Zn110  1  0.28816900  0.77610800  0.28495800  1
  Zn  Zn111  1  0.73069600  0.33276100  0.28852200  1
  Zn  Zn112  1  0.46470100  0.75830400  0.26433200  1
  Zn  Zn113  1  0.71032600  0.16913000  0.29665200  1
  Zn  Zn114  1  0.86600200  0.08437200  0.29640000  1
  Zn  Zn115  1  0.54815100  0.06021200  0.27504200  1
  Zn  Zn116  1  0.10562400  0.50355900  0.27147800  1
  Zn  Zn117  1  0.05210900  0.16100100  0.28669000  1
  Zn  Zn118  1  0.41816000  0.41816000  0.28000000  1
  Zn  Zn119  1  0.12599400  0.66719000  0.26334800  1
  Zn  Zn120  1  0.91816000  0.41816000  0.28000000  1
  Zn  Zn121  1  0.37161900  0.07801600  0.29566800  1
  Zn  Zn122  1  0.66526600  0.40835000  0.38209900  1
  Zn  Zn123  1  0.87031800  0.65194800  0.36360000  1
  Zn  Zn124  1  0.39013500  0.53939900  0.32161300  1
  Zn  Zn125  1  0.00576300  0.10934200  0.33712800  1
  Zn  Zn126  1  0.05463600  0.45283500  0.32208900  1
  Zn  Zn127  1  0.68421100  0.57531900  0.37331000  1
  Zn  Zn128  1  0.36816000  0.36816000  0.33000000  1
  Zn  Zn129  1  0.97105400  0.22797000  0.37790100  1
  Zn  Zn130  1  0.18816900  0.67610800  0.38495800  1
  Zn  Zn131  1  0.63069600  0.23276100  0.38852200  1
  Zn  Zn132  1  0.36470100  0.65830400  0.36433200  1
  Zn  Zn133  1  0.49762500  0.80200900  0.35934800  1
  Zn  Zn134  1  0.50135600  0.30481300  0.35974500  1
  Zn  Zn135  1  0.61032600  0.06913000  0.39665200  1
  Zn  Zn136  1  0.76600200  0.98437200  0.39640000  1
  Zn  Zn137  1  0.44815100  0.96021200  0.37504200  1
  Zn  Zn138  1  0.63299100  0.94435200  0.35346500  1
  Zn  Zn139  1  0.00562400  0.40355900  0.37147800  1
  Zn  Zn140  1  0.95210900  0.06100100  0.38669000  1
  Zn  Zn141  1  0.23496400  0.43150700  0.30025500  1
  Zn  Zn142  1  0.10332900  0.79196800  0.30653500  1
  Zn  Zn143  1  0.68168400  0.28348500  0.33791100  1
  Zn  Zn144  1  0.31816000  0.31816000  0.38000000  1
  Zn  Zn145  1  0.55142000  0.63883300  0.34386500  1
  Zn  Zn146  1  0.41362500  0.70925900  0.31390300  1
  Zn  Zn147  1  0.68434200  0.99124300  0.30475500  1
  Zn  Zn148  1  0.18490000  0.09748700  0.31613500  1
  Zn  Zn149  1  0.05197800  0.74507700  0.35524500  1
  Zn  Zn150  1  0.02599400  0.56719000  0.36334800  1
  Zn  Zn151  1  0.32269500  0.02706100  0.34609700  1
  Zn  Zn152  1  0.73055700  0.62697800  0.32287200  1
  Zn  Zn153  1  0.81816000  0.31816000  0.38000000  1
  Zn  Zn154  1  0.27161900  0.97801600  0.39566800  1
  Zn  Zn155  1  0.23869500  0.93431200  0.30065200  1
  Zn  Zn156  1  0.34618500  0.19692100  0.33838700  1
  Zn  Zn157  1  0.56526600  0.30835000  0.48209900  1
  Zn  Zn158  1  0.77031800  0.55194800  0.46360000  1
  Zn  Zn159  1  0.29013500  0.43939900  0.42161300  1
  Zn  Zn160  1  0.90576300  0.00934200  0.43712800  1
  Zn  Zn161  1  0.95463600  0.35283500  0.42208900  1
  Zn  Zn162  1  0.58421100  0.47531900  0.47331000  1
  Zn  Zn163  1  0.26816000  0.26816000  0.43000000  1
  Zn  Zn164  1  0.87105400  0.12797000  0.47790100  1
  Zn  Zn165  1  0.08816900  0.57610800  0.48495800  1
  Zn  Zn166  1  0.53069600  0.13276100  0.48852200  1
  Zn  Zn167  1  0.26470100  0.55830400  0.46433200  1
  Zn  Zn168  1  0.39762500  0.70200900  0.45934800  1
  Zn  Zn169  1  0.40135600  0.20481300  0.45974500  1
  Zn  Zn170  1  0.51032600  0.96913000  0.49665200  1
  Zn  Zn171  1  0.66600200  0.88437200  0.49640000  1
  Zn  Zn172  1  0.34815100  0.86021200  0.47504200  1
  Zn  Zn173  1  0.53299100  0.84435200  0.45346500  1
  Zn  Zn174  1  0.90562400  0.30355900  0.47147800  1
  Zn  Zn175  1  0.85210900  0.96100100  0.48669000  1
  Zn  Zn176  1  0.13496400  0.33150700  0.40025500  1
  Zn  Zn177  1  0.00332900  0.69196800  0.40653500  1
  Zn  Zn178  1  0.58168400  0.18348500  0.43791100  1
  Zn  Zn179  1  0.21816000  0.21816000  0.48000000  1
  Zn  Zn180  1  0.45142000  0.53883300  0.44386500  1
  Zn  Zn181  1  0.31362500  0.60925900  0.41390300  1
  Zn  Zn182  1  0.58434200  0.89124300  0.40475500  1
  Zn  Zn183  1  0.08490000  0.99748700  0.41613500  1
  Zn  Zn184  1  0.95197800  0.64507700  0.45524500  1
  Zn  Zn185  1  0.92599400  0.46719000  0.46334800  1
  Zn  Zn186  1  0.22269500  0.92706100  0.44609700  1
  Zn  Zn187  1  0.63055700  0.52697800  0.42287200  1
  Zn  Zn188  1  0.71816000  0.21816000  0.48000000  1
  Zn  Zn189  1  0.17161900  0.87801600  0.49566800  1
  Zn  Zn190  1  0.13869500  0.83431200  0.40065200  1
  Zn  Zn191  1  0.24618500  0.09692100  0.43838700  1
  Zn  Zn192  1  0.46526600  0.20835000  0.58209900  1
  Zn  Zn193  1  0.67031800  0.45194800  0.56360000  1
  Zn  Zn194  1  0.19013500  0.33939900  0.52161300  1
  Zn  Zn195  1  0.80576300  0.90934200  0.53712800  1
  Zn  Zn196  1  0.85463600  0.25283500  0.52208900  1
  Zn  Zn197  1  0.48421100  0.37531900  0.57331000  1
  Zn  Zn198  1  0.16816000  0.16816000  0.53000000  1
  Zn  Zn199  1  0.77105400  0.02797000  0.57790100  1
  Zn  Zn200  1  0.98816900  0.47610800  0.58495800  1
  Zn  Zn201  1  0.43069600  0.03276100  0.58852200  1
  Zn  Zn202  1  0.16470100  0.45830400  0.56433200  1
  Zn  Zn203  1  0.29762500  0.60200900  0.55934800  1
  Zn  Zn204  1  0.30135600  0.10481300  0.55974500  1
  Zn  Zn205  1  0.41032600  0.86913000  0.59665200  1
  Zn  Zn206  1  0.56600200  0.78437200  0.59640000  1
  Zn  Zn207  1  0.24815100  0.76021200  0.57504200  1
  Zn  Zn208  1  0.43299100  0.74435200  0.55346500  1
  Zn  Zn209  1  0.80562400  0.20355900  0.57147800  1
  Zn  Zn210  1  0.75210900  0.86100100  0.58669000  1
  Zn  Zn211  1  0.03496400  0.23150700  0.50025500  1
  Zn  Zn212  1  0.90332900  0.59196800  0.50653500  1
  Zn  Zn213  1  0.48168400  0.08348500  0.53791100  1
  Zn  Zn214  1  0.11816000  0.11816000  0.58000000  1
  Zn  Zn215  1  0.35142000  0.43883300  0.54386500  1
  Zn  Zn216  1  0.21362500  0.50925900  0.51390300  1
  Zn  Zn217  1  0.48434200  0.79124300  0.50475500  1
  Zn  Zn218  1  0.98490000  0.89748700  0.51613500  1
  Zn  Zn219  1  0.85197800  0.54507700  0.55524500  1
  Zn  Zn220  1  0.82599400  0.36719000  0.56334800  1
  Zn  Zn221  1  0.12269500  0.82706100  0.54609700  1
  Zn  Zn222  1  0.53055700  0.42697800  0.52287200  1
  Zn  Zn223  1  0.61816000  0.11816000  0.58000000  1
  Zn  Zn224  1  0.07161900  0.77801600  0.59566800  1
  Zn  Zn225  1  0.03869500  0.73431200  0.50065200  1
  Zn  Zn226  1  0.14618500  0.99692100  0.53838700  1
  Zn  Zn227  1  0.36526600  0.10835000  0.68209900  1
  Zn  Zn228  1  0.57031800  0.35194800  0.66360000  1
  Zn  Zn229  1  0.09013500  0.23939900  0.62161300  1
  Zn  Zn230  1  0.70576300  0.80934200  0.63712800  1
  Zn  Zn231  1  0.75463600  0.15283500  0.62208900  1
  Zn  Zn232  1  0.38421100  0.27531900  0.67331000  1
  Zn  Zn233  1  0.06816000  0.06816000  0.63000000  1
  Zn  Zn234  1  0.67105400  0.92797000  0.67790100  1
  Zn  Zn235  1  0.88816900  0.37610800  0.68495800  1
  Zn  Zn236  1  0.33069600  0.93276100  0.68852200  1
  Zn  Zn237  1  0.06470100  0.35830400  0.66433200  1
  Zn  Zn238  1  0.19762500  0.50200900  0.65934800  1
  Zn  Zn239  1  0.20135600  0.00481300  0.65974500  1
  Zn  Zn240  1  0.31032600  0.76913000  0.69665200  1
  Zn  Zn241  1  0.46600200  0.68437200  0.69640000  1
  Zn  Zn242  1  0.14815100  0.66021200  0.67504200  1
  Zn  Zn243  1  0.33299100  0.64435200  0.65346500  1
  Zn  Zn244  1  0.70562400  0.10355900  0.67147800  1
  Zn  Zn245  1  0.65210900  0.76100100  0.68669000  1
  Zn  Zn246  1  0.93496400  0.13150700  0.60025500  1
  Zn  Zn247  1  0.80332900  0.49196800  0.60653500  1
  Zn  Zn248  1  0.38168400  0.98348500  0.63791100  1
  Zn  Zn249  1  0.01816000  0.01816000  0.68000000  1
  Zn  Zn250  1  0.25142000  0.33883300  0.64386500  1
  Zn  Zn251  1  0.11362500  0.40925900  0.61390300  1
  Zn  Zn252  1  0.38434200  0.69124300  0.60475500  1
  Zn  Zn253  1  0.88490000  0.79748700  0.61613500  1
  Zn  Zn254  1  0.75197800  0.44507700  0.65524500  1
  Zn  Zn255  1  0.72599400  0.26719000  0.66334800  1
  Zn  Zn256  1  0.02269500  0.72706100  0.64609700  1
  Zn  Zn257  1  0.43055700  0.32697800  0.62287200  1
  Zn  Zn258  1  0.51816000  0.01816000  0.68000000  1
  Zn  Zn259  1  0.97161900  0.67801600  0.69566800  1
  Zn  Zn260  1  0.93869500  0.63431200  0.60065200  1
  Zn  Zn261  1  0.04618500  0.89692100  0.63838700  1
  Zn  Zn262  1  0.26526600  0.00835000  0.78209900  1
  Zn  Zn263  1  0.47031800  0.25194800  0.76360000  1
  Zn  Zn264  1  0.99013500  0.13939900  0.72161300  1
  Zn  Zn265  1  0.60576300  0.70934200  0.73712800  1
  Zn  Zn266  1  0.65463600  0.05283500  0.72208900  1
  Zn  Zn267  1  0.28421100  0.17531900  0.77331000  1
  Zn  Zn268  1  0.96816000  0.96816000  0.73000000  1
  Zn  Zn269  1  0.57105400  0.82797000  0.77790100  1
  Zn  Zn270  1  0.78816900  0.27610800  0.78495800  1
  Zn  Zn271  1  0.23069600  0.83276100  0.78852200  1
  Zn  Zn272  1  0.96470100  0.25830400  0.76433200  1
  Zn  Zn273  1  0.09762500  0.40200900  0.75934800  1
  Zn  Zn274  1  0.10135600  0.90481300  0.75974500  1
  Zn  Zn275  1  0.21032600  0.66913000  0.79665200  1
  Zn  Zn276  1  0.36600200  0.58437200  0.79640000  1
  Zn  Zn277  1  0.04815100  0.56021200  0.77504200  1
  Zn  Zn278  1  0.23299100  0.54435200  0.75346500  1
  Zn  Zn279  1  0.60562400  0.00355900  0.77147800  1
  Zn  Zn280  1  0.55210900  0.66100100  0.78669000  1
  Zn  Zn281  1  0.83496400  0.03150700  0.70025500  1
  Zn  Zn282  1  0.70332900  0.39196800  0.70653500  1
  Zn  Zn283  1  0.28168400  0.88348500  0.73791100  1
  Zn  Zn284  1  0.91816000  0.91816000  0.78000000  1
  Zn  Zn285  1  0.15142000  0.23883300  0.74386500  1
  Zn  Zn286  1  0.01362500  0.30925900  0.71390300  1
  Zn  Zn287  1  0.28434200  0.59124300  0.70475500  1
  Zn  Zn288  1  0.78490000  0.69748700  0.71613500  1
  Zn  Zn289  1  0.65197800  0.34507700  0.75524500  1
  Zn  Zn290  1  0.62599400  0.16719000  0.76334800  1
  Zn  Zn291  1  0.92269500  0.62706100  0.74609700  1
  Zn  Zn292  1  0.33055700  0.22697800  0.72287200  1
  Zn  Zn293  1  0.41816000  0.91816000  0.78000000  1
  Zn  Zn294  1  0.87161900  0.57801600  0.79566800  1
  Zn  Zn295  1  0.83869500  0.53431200  0.70065200  1
  Zn  Zn296  1  0.94618500  0.79692100  0.73838700  1
