# generated using pymatgen
data_Mg4Ga7
_symmetry_space_group_name_H-M   'P 1'
_cell_length_a   4.34920200
_cell_length_b   4.34920164
_cell_length_c   49.87336100
_cell_angle_alpha   90.00000000
_cell_angle_beta   90.00000000
_cell_angle_gamma   120.00000275
_symmetry_Int_Tables_number   1
_chemical_formula_structural   Mg4Ga7
_chemical_formula_sum   'Mg8 Ga14'
_cell_volume   816.99308036
_cell_formula_units_Z   2
loop_
 _symmetry_equiv_pos_site_id
 _symmetry_equiv_pos_as_xyz
  1  'x, y, z'
loop_
 _atom_site_type_symbol
 _atom_site_label
 _atom_site_symmetry_multiplicity
 _atom_site_fract_x
 _atom_site_fract_y
 _atom_site_fract_z
 _atom_site_occupancy
  Mg  Mg0  1  0.00000000  0.00000000  0.22619000  1
  Mg  Mg1  1  0.00000000  0.00000000  0.29761900  1
  Mg  Mg2  1  0.00000000  0.00000000  0.36904800  1
  Mg  Mg3  1  0.00000000  0.00000000  0.44047600  1
  Mg  Mg4  1  0.00000000  0.00000000  0.51190500  1
  Mg  Mg5  1  0.00000000  0.00000000  0.58333300  1
  Mg  Mg6  1  0.00000000  0.00000000  0.65476200  1
  Mg  Mg7  1  0.00000000  0.00000000  0.72619000  1
  Ga  Ga8  1  0.33333300  0.66666700  0.34080000  1
  Ga  Ga9  1  0.66666700  0.33333300  0.26937200  1
  Ga  Ga10  1  0.33333300  0.66666700  0.25443800  1
  Ga  Ga11  1  0.66666700  0.33333300  0.32586600  1
  Ga  Ga12  1  0.33333300  0.66666700  0.48365700  1
  Ga  Ga13  1  0.66666700  0.33333300  0.41222900  1
  Ga  Ga14  1  0.33333300  0.66666700  0.39729500  1
  Ga  Ga15  1  0.66666700  0.33333300  0.46872400  1
  Ga  Ga16  1  0.33333300  0.66666700  0.62651500  1
  Ga  Ga17  1  0.66666700  0.33333300  0.55508600  1
  Ga  Ga18  1  0.33333300  0.66666700  0.54015200  1
  Ga  Ga19  1  0.66666700  0.33333300  0.61158100  1
  Ga  Ga20  1  0.66666700  0.33333300  0.69794300  1
  Ga  Ga21  1  0.33333300  0.66666700  0.68300900  1
