# generated using pymatgen
data_Mg53Zn94
_symmetry_space_group_name_H-M   'P 1'
_cell_length_a   14.70723629
_cell_length_b   15.05206002
_cell_length_c   44.20851200
_cell_angle_alpha   83.82995566
_cell_angle_beta   98.78068454
_cell_angle_gamma   102.44989049
_symmetry_Int_Tables_number   1
_chemical_formula_structural   Mg53Zn94
_chemical_formula_sum   'Mg106 Zn188'
_cell_volume   9416.24993022
_cell_formula_units_Z   2
loop_
 _symmetry_equiv_pos_site_id
 _symmetry_equiv_pos_as_xyz
  1  'x, y, z'
loop_
 _atom_site_type_symbol
 _atom_site_label
 _atom_site_symmetry_multiplicity
 _atom_site_fract_x
 _atom_site_fract_y
 _atom_site_fract_z
 _atom_site_occupancy
  Mg  Mg0  1  0.39784500  0.83814900  0.28740400  1
  Mg  Mg1  1  0.32381600  0.16663000  0.28614100  1
  Mg  Mg2  1  0.60215500  0.79549300  0.27805100  1
  Mg  Mg3  1  0.67618400  0.46701100  0.27931400  1
  Mg  Mg4  1  0.74882900  0.13976300  0.28045700  1
  Mg  Mg5  1  0.25117100  0.49387800  0.28499700  1
  Mg  Mg6  1  0.10018000  0.89277600  0.37024700  1
  Mg  Mg7  1  0.28657500  0.66917400  0.32193400  1
  Mg  Mg8  1  0.64768300  0.08906700  0.34171400  1
  Mg  Mg9  1  0.04358200  0.89769100  0.30035600  1
  Mg  Mg10  1  0.39784500  0.63814900  0.38740400  1
  Mg  Mg11  1  0.97194700  0.21607300  0.29722500  1
  Mg  Mg12  1  0.42345600  0.01417300  0.32478400  1
  Mg  Mg13  1  0.95641800  0.53595000  0.36509900  1
  Mg  Mg14  1  0.32381600  0.96663000  0.38614100  1
  Mg  Mg15  1  0.60215500  0.59549300  0.37805100  1
  Mg  Mg16  1  0.35231700  0.34457400  0.32374000  1
  Mg  Mg17  1  0.67618400  0.26701100  0.37931400  1
  Mg  Mg18  1  0.09508800  0.70757500  0.33054600  1
  Mg  Mg19  1  0.74882900  0.93976300  0.38045700  1
  Mg  Mg20  1  0.25117100  0.29387800  0.38499700  1
  Mg  Mg21  1  0.57654400  0.41946800  0.34067100  1
  Mg  Mg22  1  0.89982000  0.54086500  0.29520800  1
  Mg  Mg23  1  0.02805300  0.21756800  0.36822900  1
  Mg  Mg24  1  0.71342500  0.76446700  0.34352100  1
  Mg  Mg25  1  0.90491200  0.72606700  0.33490900  1
  Mg  Mg26  1  0.10018000  0.69277600  0.47024700  1
  Mg  Mg27  1  0.28657500  0.46917400  0.42193400  1
  Mg  Mg28  1  0.64768300  0.88906700  0.44171400  1
  Mg  Mg29  1  0.04358200  0.69769100  0.40035600  1
  Mg  Mg30  1  0.39784500  0.43814900  0.48740400  1
  Mg  Mg31  1  0.97194700  0.01607300  0.39722500  1
  Mg  Mg32  1  0.42345600  0.81417300  0.42478400  1
  Mg  Mg33  1  0.95641800  0.33595000  0.46509900  1
  Mg  Mg34  1  0.32381600  0.76663000  0.48614100  1
  Mg  Mg35  1  0.60215500  0.39549300  0.47805100  1
  Mg  Mg36  1  0.35231700  0.14457400  0.42374000  1
  Mg  Mg37  1  0.67618400  0.06701100  0.47931400  1
  Mg  Mg38  1  0.09508800  0.50757500  0.43054600  1
  Mg  Mg39  1  0.74882900  0.73976300  0.48045700  1
  Mg  Mg40  1  0.25117100  0.09387800  0.48499700  1
  Mg  Mg41  1  0.57654400  0.21946800  0.44067100  1
  Mg  Mg42  1  0.89982000  0.34086500  0.39520800  1
  Mg  Mg43  1  0.02805300  0.01756800  0.46822900  1
  Mg  Mg44  1  0.71342500  0.56446700  0.44352100  1
  Mg  Mg45  1  0.90491200  0.52606700  0.43490900  1
  Mg  Mg46  1  0.10018000  0.49277600  0.57024700  1
  Mg  Mg47  1  0.28657500  0.26917400  0.52193400  1
  Mg  Mg48  1  0.64768300  0.68906700  0.54171400  1
  Mg  Mg49  1  0.04358200  0.49769100  0.50035600  1
  Mg  Mg50  1  0.39784500  0.23814900  0.58740400  1
  Mg  Mg51  1  0.97194700  0.81607300  0.49722500  1
  Mg  Mg52  1  0.42345600  0.61417300  0.52478400  1
  Mg  Mg53  1  0.95641800  0.13595000  0.56509900  1
  Mg  Mg54  1  0.32381600  0.56663000  0.58614100  1
  Mg  Mg55  1  0.60215500  0.19549300  0.57805100  1
  Mg  Mg56  1  0.35231700  0.94457400  0.52374000  1
  Mg  Mg57  1  0.67618400  0.86701100  0.57931400  1
  Mg  Mg58  1  0.09508800  0.30757500  0.53054600  1
  Mg  Mg59  1  0.74882900  0.53976300  0.58045700  1
  Mg  Mg60  1  0.25117100  0.89387800  0.58499700  1
  Mg  Mg61  1  0.57654400  0.01946800  0.54067100  1
  Mg  Mg62  1  0.89982000  0.14086500  0.49520800  1
  Mg  Mg63  1  0.02805300  0.81756800  0.56822900  1
  Mg  Mg64  1  0.71342500  0.36446700  0.54352100  1
  Mg  Mg65  1  0.90491200  0.32606700  0.53490900  1
  Mg  Mg66  1  0.10018000  0.29277600  0.67024700  1
  Mg  Mg67  1  0.28657500  0.06917400  0.62193400  1
  Mg  Mg68  1  0.64768300  0.48906700  0.64171400  1
  Mg  Mg69  1  0.04358200  0.29769100  0.60035600  1
  Mg  Mg70  1  0.39784500  0.03814900  0.68740400  1
  Mg  Mg71  1  0.97194700  0.61607300  0.59722500  1
  Mg  Mg72  1  0.42345600  0.41417300  0.62478400  1
  Mg  Mg73  1  0.95641800  0.93595000  0.66509900  1
  Mg  Mg74  1  0.32381600  0.36663000  0.68614100  1
  Mg  Mg75  1  0.60215500  0.99549300  0.67805100  1
  Mg  Mg76  1  0.35231700  0.74457400  0.62374000  1
  Mg  Mg77  1  0.67618400  0.66701100  0.67931400  1
  Mg  Mg78  1  0.09508800  0.10757500  0.63054600  1
  Mg  Mg79  1  0.74882900  0.33976300  0.68045700  1
  Mg  Mg80  1  0.25117100  0.69387800  0.68499700  1
  Mg  Mg81  1  0.57654400  0.81946800  0.64067100  1
  Mg  Mg82  1  0.89982000  0.94086500  0.59520800  1
  Mg  Mg83  1  0.02805300  0.61756800  0.66822900  1
  Mg  Mg84  1  0.71342500  0.16446700  0.64352100  1
  Mg  Mg85  1  0.90491200  0.12606700  0.63490900  1
  Mg  Mg86  1  0.10018000  0.09277600  0.77024700  1
  Mg  Mg87  1  0.28657500  0.86917400  0.72193400  1
  Mg  Mg88  1  0.64768300  0.28906700  0.74171400  1
  Mg  Mg89  1  0.04358200  0.09769100  0.70035600  1
  Mg  Mg90  1  0.39784500  0.83814900  0.78740400  1
  Mg  Mg91  1  0.97194700  0.41607300  0.69722500  1
  Mg  Mg92  1  0.42345600  0.21417300  0.72478400  1
  Mg  Mg93  1  0.95641800  0.73595000  0.76509900  1
  Mg  Mg94  1  0.32381600  0.16663000  0.78614100  1
  Mg  Mg95  1  0.60215500  0.79549300  0.77805100  1
  Mg  Mg96  1  0.35231700  0.54457400  0.72374000  1
  Mg  Mg97  1  0.67618400  0.46701100  0.77931400  1
  Mg  Mg98  1  0.09508800  0.90757500  0.73054600  1
  Mg  Mg99  1  0.74882900  0.13976300  0.78045700  1
  Mg  Mg100  1  0.25117100  0.49387800  0.78499700  1
  Mg  Mg101  1  0.57654400  0.61946800  0.74067100  1
  Mg  Mg102  1  0.89982000  0.74086500  0.69520800  1
  Mg  Mg103  1  0.02805300  0.41756800  0.76822900  1
  Mg  Mg104  1  0.71342500  0.96446700  0.74352100  1
  Mg  Mg105  1  0.90491200  0.92606700  0.73490900  1
  Zn  Zn106  1  0.18261300  0.79193600  0.27729100  1
  Zn  Zn107  1  0.42323600  0.64279400  0.28045800  1
  Zn  Zn108  1  0.24953100  0.96585900  0.27852800  1
  Zn  Zn109  1  0.53360100  0.15267800  0.28332800  1
  Zn  Zn110  1  0.81738700  0.84170500  0.28816400  1
  Zn  Zn111  1  0.75046900  0.66778300  0.28692700  1
  Zn  Zn112  1  0.46639900  0.48096300  0.28212700  1
  Zn  Zn113  1  0.57676400  0.99084800  0.28499600  1
  Zn  Zn114  1  0.50000000  0.31682100  0.28272700  1
  Zn  Zn115  1  0.17499800  0.29613200  0.27838700  1
  Zn  Zn116  1  0.90216100  0.01401300  0.28866200  1
  Zn  Zn117  1  0.09783900  0.61962800  0.27679300  1
  Zn  Zn118  1  0.82500200  0.33750900  0.28706700  1
  Zn  Zn119  1  0.40771000  0.82319700  0.35493600  1
  Zn  Zn120  1  0.18261300  0.59193600  0.37729100  1
  Zn  Zn121  1  0.33714800  0.15660600  0.35604000  1
  Zn  Zn122  1  0.75168900  0.56563000  0.33595700  1
  Zn  Zn123  1  0.42323600  0.44279400  0.38045800  1
  Zn  Zn124  1  0.24953100  0.76585900  0.37852800  1
  Zn  Zn125  1  0.50000000  0.21682100  0.33272700  1
  Zn  Zn126  1  0.59229000  0.61044400  0.31051800  1
  Zn  Zn127  1  0.13709400  0.35418200  0.32656300  1
  Zn  Zn128  1  0.57687700  0.89239400  0.33441200  1
  Zn  Zn129  1  0.17552400  0.19589100  0.32775500  1
  Zn  Zn130  1  0.03680400  0.05582700  0.33381800  1
  Zn  Zn131  1  0.53360100  0.95267800  0.38332800  1
  Zn  Zn132  1  0.73237700  0.94954600  0.31195500  1
  Zn  Zn133  1  0.81738700  0.64170500  0.38816400  1
  Zn  Zn134  1  0.86290600  0.07945900  0.33889200  1
  Zn  Zn135  1  0.90034300  0.91318200  0.34039800  1
  Zn  Zn136  1  0.42312300  0.54124800  0.33104300  1
  Zn  Zn137  1  0.75046900  0.46778300  0.38692700  1
  Zn  Zn138  1  0.46639900  0.28096300  0.38212700  1
  Zn  Zn139  1  0.09965700  0.52045900  0.32505600  1
  Zn  Zn140  1  0.57676400  0.79084800  0.38499600  1
  Zn  Zn141  1  0.50000000  0.11682100  0.38272700  1
  Zn  Zn142  1  0.21546200  0.02994300  0.32760300  1
  Zn  Zn143  1  0.17499800  0.09613200  0.37838700  1
  Zn  Zn144  1  0.90216100  0.81401300  0.38866200  1
  Zn  Zn145  1  0.78453800  0.40369800  0.33785100  1
  Zn  Zn146  1  0.09783900  0.41962800  0.37679300  1
  Zn  Zn147  1  0.26762300  0.48409500  0.35349900  1
  Zn  Zn148  1  0.82500200  0.13750900  0.38706700  1
  Zn  Zn149  1  0.24831100  0.86801100  0.32949800  1
  Zn  Zn150  1  0.50000000  0.71682100  0.33272700  1
  Zn  Zn151  1  0.82447600  0.23775000  0.33769900  1
  Zn  Zn152  1  0.96319600  0.37781400  0.33163700  1
  Zn  Zn153  1  0.66285200  0.27703500  0.30941400  1
  Zn  Zn154  1  0.40771000  0.62319700  0.45493600  1
  Zn  Zn155  1  0.18261300  0.39193600  0.47729100  1
  Zn  Zn156  1  0.33714800  0.95660600  0.45604000  1
  Zn  Zn157  1  0.75168900  0.36563000  0.43595700  1
  Zn  Zn158  1  0.42323600  0.24279400  0.48045800  1
  Zn  Zn159  1  0.24953100  0.56585900  0.47852800  1
  Zn  Zn160  1  0.50000000  0.01682100  0.43272700  1
  Zn  Zn161  1  0.59229000  0.41044400  0.41051800  1
  Zn  Zn162  1  0.13709400  0.15418200  0.42656300  1
  Zn  Zn163  1  0.57687700  0.69239400  0.43441200  1
  Zn  Zn164  1  0.17552400  0.99589100  0.42775500  1
  Zn  Zn165  1  0.03680400  0.85582700  0.43381800  1
  Zn  Zn166  1  0.53360100  0.75267800  0.48332800  1
  Zn  Zn167  1  0.73237700  0.74954600  0.41195500  1
  Zn  Zn168  1  0.81738700  0.44170500  0.48816400  1
  Zn  Zn169  1  0.86290600  0.87945900  0.43889200  1
  Zn  Zn170  1  0.90034300  0.71318200  0.44039800  1
  Zn  Zn171  1  0.42312300  0.34124800  0.43104300  1
  Zn  Zn172  1  0.75046900  0.26778300  0.48692700  1
  Zn  Zn173  1  0.46639900  0.08096300  0.48212700  1
  Zn  Zn174  1  0.09965700  0.32045900  0.42505600  1
  Zn  Zn175  1  0.57676400  0.59084800  0.48499600  1
  Zn  Zn176  1  0.50000000  0.91682100  0.48272700  1
  Zn  Zn177  1  0.21546200  0.82994300  0.42760300  1
  Zn  Zn178  1  0.17499800  0.89613200  0.47838700  1
  Zn  Zn179  1  0.90216100  0.61401300  0.48866200  1
  Zn  Zn180  1  0.78453800  0.20369800  0.43785100  1
  Zn  Zn181  1  0.09783900  0.21962800  0.47679300  1
  Zn  Zn182  1  0.26762300  0.28409500  0.45349900  1
  Zn  Zn183  1  0.82500200  0.93750900  0.48706700  1
  Zn  Zn184  1  0.24831100  0.66801100  0.42949800  1
  Zn  Zn185  1  0.50000000  0.51682100  0.43272700  1
  Zn  Zn186  1  0.82447600  0.03775000  0.43769900  1
  Zn  Zn187  1  0.96319600  0.17781400  0.43163700  1
  Zn  Zn188  1  0.66285200  0.07703500  0.40941400  1
  Zn  Zn189  1  0.40771000  0.42319700  0.55493600  1
  Zn  Zn190  1  0.18261300  0.19193600  0.57729100  1
  Zn  Zn191  1  0.33714800  0.75660600  0.55604000  1
  Zn  Zn192  1  0.75168900  0.16563000  0.53595700  1
  Zn  Zn193  1  0.42323600  0.04279400  0.58045800  1
  Zn  Zn194  1  0.24953100  0.36585900  0.57852800  1
  Zn  Zn195  1  0.50000000  0.81682100  0.53272700  1
  Zn  Zn196  1  0.59229000  0.21044400  0.51051800  1
  Zn  Zn197  1  0.13709400  0.95418200  0.52656300  1
  Zn  Zn198  1  0.57687700  0.49239400  0.53441200  1
  Zn  Zn199  1  0.17552400  0.79589100  0.52775500  1
  Zn  Zn200  1  0.03680400  0.65582700  0.53381800  1
  Zn  Zn201  1  0.53360100  0.55267800  0.58332800  1
  Zn  Zn202  1  0.73237700  0.54954600  0.51195500  1
  Zn  Zn203  1  0.81738700  0.24170500  0.58816400  1
  Zn  Zn204  1  0.86290600  0.67945900  0.53889200  1
  Zn  Zn205  1  0.90034300  0.51318200  0.54039800  1
  Zn  Zn206  1  0.42312300  0.14124800  0.53104300  1
  Zn  Zn207  1  0.75046900  0.06778300  0.58692700  1
  Zn  Zn208  1  0.46639900  0.88096300  0.58212700  1
  Zn  Zn209  1  0.09965700  0.12045900  0.52505600  1
  Zn  Zn210  1  0.57676400  0.39084800  0.58499600  1
  Zn  Zn211  1  0.50000000  0.71682100  0.58272700  1
  Zn  Zn212  1  0.21546200  0.62994300  0.52760300  1
  Zn  Zn213  1  0.17499800  0.69613200  0.57838700  1
  Zn  Zn214  1  0.90216100  0.41401300  0.58866200  1
  Zn  Zn215  1  0.78453800  0.00369800  0.53785100  1
  Zn  Zn216  1  0.09783900  0.01962800  0.57679300  1
  Zn  Zn217  1  0.26762300  0.08409500  0.55349900  1
  Zn  Zn218  1  0.82500200  0.73750900  0.58706700  1
  Zn  Zn219  1  0.24831100  0.46801100  0.52949800  1
  Zn  Zn220  1  0.50000000  0.31682100  0.53272700  1
  Zn  Zn221  1  0.82447600  0.83775000  0.53769900  1
  Zn  Zn222  1  0.96319600  0.97781400  0.53163700  1
  Zn  Zn223  1  0.66285200  0.87703500  0.50941400  1
  Zn  Zn224  1  0.40771000  0.22319700  0.65493600  1
  Zn  Zn225  1  0.18261300  0.99193600  0.67729100  1
  Zn  Zn226  1  0.33714800  0.55660600  0.65604000  1
  Zn  Zn227  1  0.75168900  0.96563000  0.63595700  1
  Zn  Zn228  1  0.42323600  0.84279400  0.68045800  1
  Zn  Zn229  1  0.24953100  0.16585900  0.67852800  1
  Zn  Zn230  1  0.50000000  0.61682100  0.63272700  1
  Zn  Zn231  1  0.59229000  0.01044400  0.61051800  1
  Zn  Zn232  1  0.13709400  0.75418200  0.62656300  1
  Zn  Zn233  1  0.57687700  0.29239400  0.63441200  1
  Zn  Zn234  1  0.17552400  0.59589100  0.62775500  1
  Zn  Zn235  1  0.03680400  0.45582700  0.63381800  1
  Zn  Zn236  1  0.53360100  0.35267800  0.68332800  1
  Zn  Zn237  1  0.73237700  0.34954600  0.61195500  1
  Zn  Zn238  1  0.81738700  0.04170500  0.68816400  1
  Zn  Zn239  1  0.86290600  0.47945900  0.63889200  1
  Zn  Zn240  1  0.90034300  0.31318200  0.64039800  1
  Zn  Zn241  1  0.42312300  0.94124800  0.63104300  1
  Zn  Zn242  1  0.75046900  0.86778300  0.68692700  1
  Zn  Zn243  1  0.46639900  0.68096300  0.68212700  1
  Zn  Zn244  1  0.09965700  0.92045900  0.62505600  1
  Zn  Zn245  1  0.57676400  0.19084800  0.68499600  1
  Zn  Zn246  1  0.50000000  0.51682100  0.68272700  1
  Zn  Zn247  1  0.21546200  0.42994300  0.62760300  1
  Zn  Zn248  1  0.17499800  0.49613200  0.67838700  1
  Zn  Zn249  1  0.90216100  0.21401300  0.68866200  1
  Zn  Zn250  1  0.78453800  0.80369800  0.63785100  1
  Zn  Zn251  1  0.09783900  0.81962800  0.67679300  1
  Zn  Zn252  1  0.26762300  0.88409500  0.65349900  1
  Zn  Zn253  1  0.82500200  0.53750900  0.68706700  1
  Zn  Zn254  1  0.24831100  0.26801100  0.62949800  1
  Zn  Zn255  1  0.50000000  0.11682100  0.63272700  1
  Zn  Zn256  1  0.82447600  0.63775000  0.63769900  1
  Zn  Zn257  1  0.96319600  0.77781400  0.63163700  1
  Zn  Zn258  1  0.66285200  0.67703500  0.60941400  1
  Zn  Zn259  1  0.40771000  0.02319700  0.75493600  1
  Zn  Zn260  1  0.18261300  0.79193600  0.77729100  1
  Zn  Zn261  1  0.33714800  0.35660600  0.75604000  1
  Zn  Zn262  1  0.75168900  0.76563000  0.73595700  1
  Zn  Zn263  1  0.42323600  0.64279400  0.78045800  1
  Zn  Zn264  1  0.24953100  0.96585900  0.77852800  1
  Zn  Zn265  1  0.50000000  0.41682100  0.73272700  1
  Zn  Zn266  1  0.59229000  0.81044400  0.71051800  1
  Zn  Zn267  1  0.13709400  0.55418200  0.72656300  1
  Zn  Zn268  1  0.57687700  0.09239400  0.73441200  1
  Zn  Zn269  1  0.17552400  0.39589100  0.72775500  1
  Zn  Zn270  1  0.03680400  0.25582700  0.73381800  1
  Zn  Zn271  1  0.53360100  0.15267800  0.78332800  1
  Zn  Zn272  1  0.73237700  0.14954600  0.71195500  1
  Zn  Zn273  1  0.81738700  0.84170500  0.78816400  1
  Zn  Zn274  1  0.86290600  0.27945900  0.73889200  1
  Zn  Zn275  1  0.90034300  0.11318200  0.74039800  1
  Zn  Zn276  1  0.42312300  0.74124800  0.73104300  1
  Zn  Zn277  1  0.75046900  0.66778300  0.78692700  1
  Zn  Zn278  1  0.46639900  0.48096300  0.78212700  1
  Zn  Zn279  1  0.09965700  0.72045900  0.72505600  1
  Zn  Zn280  1  0.57676400  0.99084800  0.78499600  1
  Zn  Zn281  1  0.50000000  0.31682100  0.78272700  1
  Zn  Zn282  1  0.21546200  0.22994300  0.72760300  1
  Zn  Zn283  1  0.17499800  0.29613200  0.77838700  1
  Zn  Zn284  1  0.90216100  0.01401300  0.78866200  1
  Zn  Zn285  1  0.78453800  0.60369800  0.73785100  1
  Zn  Zn286  1  0.09783900  0.61962800  0.77679300  1
  Zn  Zn287  1  0.26762300  0.68409500  0.75349900  1
  Zn  Zn288  1  0.82500200  0.33750900  0.78706700  1
  Zn  Zn289  1  0.24831100  0.06801100  0.72949800  1
  Zn  Zn290  1  0.50000000  0.91682100  0.73272700  1
  Zn  Zn291  1  0.82447600  0.43775000  0.73769900  1
  Zn  Zn292  1  0.96319600  0.57781400  0.73163700  1
  Zn  Zn293  1  0.66285200  0.47703500  0.70941400  1
