# generated using pymatgen
data_Mg19Zn35
_symmetry_space_group_name_H-M   'P 1'
_cell_length_a   5.07402260
_cell_length_b   13.26606241
_cell_length_c   57.00757700
_cell_angle_alpha   92.18610401
_cell_angle_beta   87.66012493
_cell_angle_gamma   100.62858194
_symmetry_Int_Tables_number   1
_chemical_formula_structural   Mg19Zn35
_chemical_formula_sum   'Mg38 Zn70'
_cell_volume   3766.49990850
_cell_formula_units_Z   2
loop_
 _symmetry_equiv_pos_site_id
 _symmetry_equiv_pos_as_xyz
  1  'x, y, z'
loop_
 _atom_site_type_symbol
 _atom_site_label
 _atom_site_symmetry_multiplicity
 _atom_site_fract_x
 _atom_site_fract_y
 _atom_site_fract_z
 _atom_site_occupancy
  Mg  Mg0  1  0.15895300  0.53215800  0.47041000  1
  Mg  Mg1  1  0.36845400  0.89898500  0.42381100  1
  Mg  Mg2  1  0.72037700  0.52980700  0.33353400  1
  Mg  Mg3  1  0.70884700  0.65287600  0.48455900  1
  Mg  Mg4  1  0.84148500  0.82688700  0.39599300  1
  Mg  Mg5  1  0.03436400  0.32284500  0.50246800  1
  Mg  Mg6  1  0.72487300  0.58250600  0.38959100  1
  Mg  Mg7  1  0.05736700  0.11333900  0.25635000  1
  Mg  Mg8  1  0.16156300  0.48242500  0.41450100  1
  Mg  Mg9  1  0.92473000  0.93932700  0.34491600  1
  Mg  Mg10  1  0.04583700  0.23640700  0.40737500  1
  Mg  Mg11  1  0.60465100  0.28379000  0.32640800  1
  Mg  Mg12  1  0.29008500  0.79548800  0.47168200  1
  Mg  Mg13  1  0.28641600  0.62691100  0.30824700  1
  Mg  Mg14  1  0.47979900  0.13930300  0.43266200  1
  Mg  Mg15  1  0.04134100  0.18370800  0.35131800  1
  Mg  Mg16  1  0.60726100  0.23405700  0.27049900  1
  Mg  Mg17  1  0.48185000  0.19336900  0.48844100  1
  Mg  Mg18  1  0.39776100  0.86722900  0.31709800  1
  Mg  Mg19  1  0.47613000  0.97072600  0.26922700  1
  Mg  Mg20  1  0.90895300  0.28215800  0.72041000  1
  Mg  Mg21  1  0.11845400  0.64898500  0.67381100  1
  Mg  Mg22  1  0.47037700  0.27980700  0.58353400  1
  Mg  Mg23  1  0.45884700  0.40287600  0.73455900  1
  Mg  Mg24  1  0.59148500  0.57688700  0.64599300  1
  Mg  Mg25  1  0.47487300  0.33250600  0.63959100  1
  Mg  Mg26  1  0.80736700  0.86333900  0.50635000  1
  Mg  Mg27  1  0.91156300  0.23242500  0.66450100  1
  Mg  Mg28  1  0.67473000  0.68932700  0.59491600  1
  Mg  Mg29  1  0.79583700  0.98640700  0.65737500  1
  Mg  Mg30  1  0.35465100  0.03379000  0.57640800  1
  Mg  Mg31  1  0.04008500  0.54548800  0.72168200  1
  Mg  Mg32  1  0.03641600  0.37691100  0.55824700  1
  Mg  Mg33  1  0.22979900  0.88930300  0.68266200  1
  Mg  Mg34  1  0.79134100  0.93370800  0.60131800  1
  Mg  Mg35  1  0.35726100  0.98405700  0.52049900  1
  Mg  Mg36  1  0.14776100  0.61722900  0.56709800  1
  Mg  Mg37  1  0.22613000  0.72072600  0.51922700  1
  Zn  Zn38  1  0.28873900  0.70924000  0.39352700  1
  Zn  Zn39  1  0.82236900  0.83951800  0.44980100  1
  Zn  Zn40  1  0.59567600  0.35598300  0.41116800  1
  Zn  Zn41  1  0.26900300  0.09076100  0.30753200  1
  Zn  Zn42  1  0.70804200  0.04248100  0.38964600  1
  Zn  Zn43  1  0.00312300  0.67985100  0.43307200  1
  Zn  Zn44  1  0.88310700  0.38310700  0.37045500  1
  Zn  Zn45  1  0.47747600  0.05697400  0.34738200  1
  Zn  Zn46  1  0.97905800  0.16734800  0.46118100  1
  Zn  Zn47  1  0.56442300  0.72338400  0.35123500  1
  Zn  Zn48  1  0.82083400  0.33286200  0.45157400  1
  Zn  Zn49  1  0.59758900  0.42612000  0.48625400  1
  Zn  Zn50  1  0.22256200  0.55444900  0.36205400  1
  Zn  Zn51  1  0.84010200  0.75002000  0.31236000  1
  Zn  Zn52  1  0.94384600  0.92669600  0.29110800  1
  Zn  Zn53  1  0.78715600  0.59886600  0.27972800  1
  Zn  Zn54  1  0.61818800  0.77148900  0.27036900  1
  Zn  Zn55  1  0.20179200  0.04283000  0.38967400  1
  Zn  Zn56  1  0.76309200  0.08636400  0.30783700  1
  Zn  Zn57  1  0.54365200  0.21176500  0.37885500  1
  Zn  Zn58  1  0.14802600  0.99472500  0.47054000  1
  Zn  Zn59  1  0.05817300  0.72373300  0.35126400  1
  Zn  Zn60  1  0.38310700  0.38310700  0.37045500  1
  Zn  Zn61  1  0.66608600  0.50909800  0.44158900  1
  Zn  Zn62  1  0.31588700  0.33122500  0.45170500  1
  Zn  Zn63  1  0.13336300  0.77458500  0.26991400  1
  Zn  Zn64  1  0.10012900  0.25711600  0.29932000  1
  Zn  Zn65  1  0.63285100  0.99162900  0.47099500  1
  Zn  Zn66  1  0.92611200  0.01619400  0.42854900  1
  Zn  Zn67  1  0.45032700  0.43498900  0.28920400  1
  Zn  Zn68  1  0.49721100  0.67545300  0.43337700  1
  Zn  Zn69  1  0.38310700  0.88310700  0.37045500  1
  Zn  Zn70  1  0.94538100  0.43335300  0.28933500  1
  Zn  Zn71  1  0.16862500  0.34009400  0.25465500  1
  Zn  Zn72  1  0.17053900  0.41023100  0.32974100  1
  Zn  Zn73  1  0.03873900  0.45924000  0.64352700  1
  Zn  Zn74  1  0.57236900  0.58951800  0.69980100  1
  Zn  Zn75  1  0.34567600  0.10598300  0.66116800  1
  Zn  Zn76  1  0.01900300  0.84076100  0.55753200  1
  Zn  Zn77  1  0.45804200  0.79248100  0.63964600  1
  Zn  Zn78  1  0.75312300  0.42985100  0.68307200  1
  Zn  Zn79  1  0.63310700  0.13310700  0.62045500  1
  Zn  Zn80  1  0.22747600  0.80697400  0.59738200  1
  Zn  Zn81  1  0.72905800  0.91734800  0.71118100  1
  Zn  Zn82  1  0.31442300  0.47338400  0.60123500  1
  Zn  Zn83  1  0.57083400  0.08286200  0.70157400  1
  Zn  Zn84  1  0.34758900  0.17612000  0.73625400  1
  Zn  Zn85  1  0.97256200  0.30444900  0.61205400  1
  Zn  Zn86  1  0.59010200  0.50002000  0.56236000  1
  Zn  Zn87  1  0.69384600  0.67669600  0.54110800  1
  Zn  Zn88  1  0.53715600  0.34886600  0.52972800  1
  Zn  Zn89  1  0.36818800  0.52148900  0.52036900  1
  Zn  Zn90  1  0.95179200  0.79283000  0.63967400  1
  Zn  Zn91  1  0.51309200  0.83636400  0.55783700  1
  Zn  Zn92  1  0.29365200  0.96176500  0.62885500  1
  Zn  Zn93  1  0.89802600  0.74472500  0.72054000  1
  Zn  Zn94  1  0.80817300  0.47373300  0.60126400  1
  Zn  Zn95  1  0.13310700  0.13310700  0.62045500  1
  Zn  Zn96  1  0.41608600  0.25909800  0.69158900  1
  Zn  Zn97  1  0.06588700  0.08122500  0.70170500  1
  Zn  Zn98  1  0.88336300  0.52458500  0.51991400  1
  Zn  Zn99  1  0.85012900  0.00711600  0.54932000  1
  Zn  Zn100  1  0.38285100  0.74162900  0.72099500  1
  Zn  Zn101  1  0.67611200  0.76619400  0.67854900  1
  Zn  Zn102  1  0.20032700  0.18498900  0.53920400  1
  Zn  Zn103  1  0.24721100  0.42545300  0.68337700  1
  Zn  Zn104  1  0.13310700  0.63310700  0.62045500  1
  Zn  Zn105  1  0.69538100  0.18335300  0.53933500  1
  Zn  Zn106  1  0.91862500  0.09009400  0.50465500  1
  Zn  Zn107  1  0.92053900  0.16023100  0.57974100  1
