# generated using pymatgen
data_Ce7Mg3
_symmetry_space_group_name_H-M   'P 1'
_cell_length_a   3.15985600
_cell_length_b   5.24483100
_cell_length_c   55.55029700
_cell_angle_alpha   90.00000000
_cell_angle_beta   90.00000000
_cell_angle_gamma   90.00000000
_symmetry_Int_Tables_number   1
_chemical_formula_structural   Ce7Mg3
_chemical_formula_sum   'Ce14 Mg6'
_cell_volume   920.63011178
_cell_formula_units_Z   2
loop_
 _symmetry_equiv_pos_site_id
 _symmetry_equiv_pos_as_xyz
  1  'x, y, z'
loop_
 _atom_site_type_symbol
 _atom_site_label
 _atom_site_symmetry_multiplicity
 _atom_site_fract_x
 _atom_site_fract_y
 _atom_site_fract_z
 _atom_site_occupancy
  Ce  Ce0  1  0.00000000  0.75000000  0.48770200  1
  Ce  Ce1  1  0.50000000  0.75000000  0.21008900  1
  Ce  Ce2  1  0.00000000  0.25000000  0.17879900  1
  Ce  Ce3  1  0.50000000  0.25000000  0.23452000  1
  Ce  Ce4  1  0.50000000  0.75000000  0.32103500  1
  Ce  Ce5  1  0.00000000  0.75000000  0.37675600  1
  Ce  Ce6  1  0.50000000  0.25000000  0.34546600  1
  Ce  Ce7  1  0.00000000  0.25000000  0.40118700  1
  Ce  Ce8  1  0.50000000  0.75000000  0.54342300  1
  Ce  Ce9  1  0.00000000  0.25000000  0.51213300  1
  Ce  Ce10  1  0.50000000  0.25000000  0.56785400  1
  Ce  Ce11  1  0.50000000  0.75000000  0.65436800  1
  Ce  Ce12  1  0.00000000  0.75000000  0.71008900  1
  Ce  Ce13  1  0.50000000  0.25000000  0.67879900  1
  Mg  Mg14  1  0.00000000  0.75000000  0.26412300  1
  Mg  Mg15  1  0.50000000  0.25000000  0.45809900  1
  Mg  Mg16  1  0.50000000  0.75000000  0.43079000  1
  Mg  Mg17  1  0.00000000  0.25000000  0.29143200  1
  Mg  Mg18  1  0.00000000  0.75000000  0.59745700  1
  Mg  Mg19  1  0.00000000  0.25000000  0.62476500  1
