# generated using pymatgen
data_Mg50Ni99
_symmetry_space_group_name_H-M   'P 1'
_cell_length_a   4.81848500
_cell_length_b   16.44013798
_cell_length_c   44.59142500
_cell_angle_alpha   84.29083893
_cell_angle_beta   90.00000000
_cell_angle_gamma   81.57316207
_symmetry_Int_Tables_number   1
_chemical_formula_structural   Mg50Ni99
_chemical_formula_sum   'Mg50 Ni99'
_cell_volume   3476.52899218
_cell_formula_units_Z   1
loop_
 _symmetry_equiv_pos_site_id
 _symmetry_equiv_pos_as_xyz
  1  'x, y, z'
loop_
 _atom_site_type_symbol
 _atom_site_label
 _atom_site_symmetry_multiplicity
 _atom_site_fract_x
 _atom_site_fract_y
 _atom_site_fract_z
 _atom_site_occupancy
  Mg  Mg0  1  0.23494300  0.56960400  0.26228300  1
  Mg  Mg1  1  0.89186600  0.25575700  0.26423200  1
  Mg  Mg2  1  0.15112100  0.73724800  0.34571400  1
  Mg  Mg3  1  0.52114300  0.99720400  0.27171000  1
  Mg  Mg4  1  0.37839300  0.28270300  0.30026000  1
  Mg  Mg5  1  0.29387000  0.45175000  0.31716400  1
  Mg  Mg6  1  0.52282100  0.99384700  0.33804100  1
  Mg  Mg7  1  0.14944200  0.74060600  0.27938300  1
  Mg  Mg8  1  0.78039700  0.47869500  0.35319200  1
  Mg  Mg9  1  0.43732100  0.16484800  0.35514100  1
  Mg  Mg10  1  0.69657500  0.64633900  0.43662300  1
  Mg  Mg11  1  0.06659700  0.90629500  0.36261900  1
  Mg  Mg12  1  0.92384800  0.19179400  0.39116900  1
  Mg  Mg13  1  0.83932400  0.36084100  0.40807400  1
  Mg  Mg14  1  0.06827600  0.90293800  0.42895000  1
  Mg  Mg15  1  0.69489600  0.64969700  0.37029200  1
  Mg  Mg16  1  0.32585200  0.38778600  0.44410100  1
  Mg  Mg17  1  0.98277500  0.07393900  0.44605000  1
  Mg  Mg18  1  0.24203000  0.55543000  0.52753300  1
  Mg  Mg19  1  0.61205200  0.81538600  0.45352800  1
  Mg  Mg20  1  0.46930200  0.10088500  0.48207800  1
  Mg  Mg21  1  0.38477900  0.26993100  0.49898300  1
  Mg  Mg22  1  0.61373000  0.81202900  0.51985900  1
  Mg  Mg23  1  0.24035100  0.55878800  0.46120200  1
  Mg  Mg24  1  0.87130600  0.29687700  0.53501100  1
  Mg  Mg25  1  0.52823000  0.98303000  0.53695900  1
  Mg  Mg26  1  0.78748400  0.46452100  0.61844200  1
  Mg  Mg27  1  0.15750600  0.72447700  0.54443700  1
  Mg  Mg28  1  0.01475700  0.00997600  0.57298700  1
  Mg  Mg29  1  0.93023400  0.17902200  0.58989200  1
  Mg  Mg30  1  0.15918500  0.72112000  0.61076800  1
  Mg  Mg31  1  0.78580500  0.46787900  0.55211100  1
  Mg  Mg32  1  0.41676100  0.20596800  0.62592000  1
  Mg  Mg33  1  0.07368400  0.89212100  0.62786800  1
  Mg  Mg34  1  0.33293900  0.37361200  0.70935100  1
  Mg  Mg35  1  0.70296100  0.63356800  0.63534600  1
  Mg  Mg36  1  0.56021100  0.91906700  0.66389600  1
  Mg  Mg37  1  0.47568800  0.08811300  0.68080100  1
  Mg  Mg38  1  0.70464000  0.63021000  0.70167700  1
  Mg  Mg39  1  0.33126000  0.37696900  0.64302000  1
  Mg  Mg40  1  0.96221500  0.11505900  0.71682900  1
  Mg  Mg41  1  0.61913900  0.80121200  0.71877700  1
  Mg  Mg42  1  0.87839300  0.28270300  0.80026000  1
  Mg  Mg43  1  0.24841500  0.54265900  0.72625500  1
  Mg  Mg44  1  0.10566600  0.82815800  0.75480500  1
  Mg  Mg45  1  0.02114300  0.99720400  0.77171000  1
  Mg  Mg46  1  0.25009400  0.53930100  0.79258600  1
  Mg  Mg47  1  0.87671500  0.28606000  0.73392900  1
  Mg  Mg48  1  0.50767000  0.02415000  0.80773800  1
  Mg  Mg49  1  0.16459300  0.71030300  0.80968600  1
  Ni  Ni50  1  0.06340400  0.91268100  0.26325800  1
  Ni  Ni51  1  0.56340400  0.41268100  0.26325800  1
  Ni  Ni52  1  0.06340400  0.41268100  0.26325800  1
  Ni  Ni53  1  0.65053700  0.73841500  0.31249800  1
  Ni  Ni54  1  0.02172600  0.99603800  0.30492700  1
  Ni  Ni55  1  0.90811300  0.22326400  0.32764900  1
  Ni  Ni56  1  0.76415000  0.51118900  0.28977500  1
  Ni  Ni57  1  0.33613200  0.86722600  0.30871200  1
  Ni  Ni58  1  0.60885900  0.82177200  0.35416700  1
  Ni  Ni59  1  0.83613200  0.86722600  0.30871200  1
  Ni  Ni60  1  0.10885900  0.32177200  0.35416700  1
  Ni  Ni61  1  0.83613200  0.36722600  0.30871200  1
  Ni  Ni62  1  0.60885900  0.32177200  0.35416700  1
  Ni  Ni63  1  0.96828400  0.60945300  0.31648600  1
  Ni  Ni64  1  0.69199400  0.65550100  0.27043700  1
  Ni  Ni65  1  0.46175300  0.60945300  0.31648600  1
  Ni  Ni66  1  0.70397900  0.12500000  0.30093800  1
  Ni  Ni67  1  0.98026900  0.07895200  0.34698700  1
  Ni  Ni68  1  0.21051000  0.12500000  0.30093800  1
  Ni  Ni69  1  0.19599200  0.64750600  0.40340700  1
  Ni  Ni70  1  0.56718100  0.90512900  0.39583600  1
  Ni  Ni71  1  0.45356800  0.13235400  0.41855800  1
  Ni  Ni72  1  0.30960500  0.42028000  0.38068400  1
  Ni  Ni73  1  0.88158600  0.77631700  0.39962100  1
  Ni  Ni74  1  0.15431300  0.73086300  0.44507600  1
  Ni  Ni75  1  0.38158600  0.77631700  0.39962100  1
  Ni  Ni76  1  0.65431300  0.23086300  0.44507600  1
  Ni  Ni77  1  0.38158600  0.27631700  0.39962100  1
  Ni  Ni78  1  0.15431300  0.23086300  0.44507600  1
  Ni  Ni79  1  0.51373900  0.51854400  0.40739500  1
  Ni  Ni80  1  0.23744900  0.56459200  0.36134700  1
  Ni  Ni81  1  0.00720700  0.51854400  0.40739500  1
  Ni  Ni82  1  0.24943400  0.03409100  0.39184800  1
  Ni  Ni83  1  0.52572300  0.98804300  0.43789600  1
  Ni  Ni84  1  0.75596500  0.03409100  0.39184800  1
  Ni  Ni85  1  0.74144600  0.55659700  0.49431600  1
  Ni  Ni86  1  0.11263500  0.81421900  0.48674500  1
  Ni  Ni87  1  0.99902200  0.04144500  0.50946700  1
  Ni  Ni88  1  0.85505900  0.32937100  0.47159300  1
  Ni  Ni89  1  0.42704100  0.68540800  0.49053000  1
  Ni  Ni90  1  0.69976800  0.63995400  0.53598500  1
  Ni  Ni91  1  0.92704100  0.68540800  0.49053000  1
  Ni  Ni92  1  0.19976800  0.13995400  0.53598500  1
  Ni  Ni93  1  0.92704100  0.18540800  0.49053000  1
  Ni  Ni94  1  0.69976800  0.13995400  0.53598500  1
  Ni  Ni95  1  0.05919300  0.42763400  0.49830400  1
  Ni  Ni96  1  0.78290300  0.47368300  0.45225600  1
  Ni  Ni97  1  0.55266200  0.42763400  0.49830400  1
  Ni  Ni98  1  0.79488800  0.94318200  0.48275700  1
  Ni  Ni99  1  0.07117800  0.89713400  0.52880500  1
  Ni  Ni100  1  0.30142000  0.94318200  0.48275700  1
  Ni  Ni101  1  0.28690100  0.46568800  0.58522500  1
  Ni  Ni102  1  0.65809000  0.72331000  0.57765400  1
  Ni  Ni103  1  0.54447700  0.95053600  0.60037600  1
  Ni  Ni104  1  0.40051400  0.23846200  0.56250200  1
  Ni  Ni105  1  0.97249500  0.59449900  0.58143900  1
  Ni  Ni106  1  0.24522300  0.54904500  0.62689400  1
  Ni  Ni107  1  0.47249500  0.59449900  0.58143900  1
  Ni  Ni108  1  0.74522300  0.04904500  0.62689400  1
  Ni  Ni109  1  0.47249500  0.09449900  0.58143900  1
  Ni  Ni110  1  0.24522300  0.04904500  0.62689400  1
  Ni  Ni111  1  0.60464800  0.33672500  0.58921300  1
  Ni  Ni112  1  0.32835800  0.38277400  0.54316500  1
  Ni  Ni113  1  0.09811600  0.33672500  0.58921300  1
  Ni  Ni114  1  0.34034300  0.85227300  0.57366600  1
  Ni  Ni115  1  0.61663300  0.80622400  0.61971400  1
  Ni  Ni116  1  0.84687400  0.85227300  0.57366600  1
  Ni  Ni117  1  0.83235500  0.37477900  0.67613400  1
  Ni  Ni118  1  0.20354400  0.63240100  0.66856300  1
  Ni  Ni119  1  0.08993100  0.85962700  0.69128600  1
  Ni  Ni120  1  0.94596800  0.14755300  0.65341100  1
  Ni  Ni121  1  0.51795000  0.50359000  0.67234800  1
  Ni  Ni122  1  0.79067700  0.45813500  0.71780300  1
  Ni  Ni123  1  0.01795000  0.50359000  0.67234800  1
  Ni  Ni124  1  0.29067700  0.95813500  0.71780300  1
  Ni  Ni125  1  0.01795000  0.00359000  0.67234800  1
  Ni  Ni126  1  0.79067700  0.95813500  0.71780300  1
  Ni  Ni127  1  0.15010200  0.24581600  0.68012200  1
  Ni  Ni128  1  0.87381200  0.29186500  0.63407400  1
  Ni  Ni129  1  0.64357100  0.24581600  0.68012200  1
  Ni  Ni130  1  0.88579700  0.76136400  0.66457500  1
  Ni  Ni131  1  0.16208700  0.71531500  0.71062300  1
  Ni  Ni132  1  0.39232900  0.76136400  0.66457500  1
  Ni  Ni133  1  0.37781000  0.28387000  0.76704300  1
  Ni  Ni134  1  0.74899900  0.54149200  0.75947200  1
  Ni  Ni135  1  0.63538600  0.76871800  0.78219500  1
  Ni  Ni136  1  0.49142300  0.05664400  0.74432100  1
  Ni  Ni137  1  0.06340400  0.41268100  0.76325800  1
  Ni  Ni138  1  0.33613200  0.36722600  0.80871200  1
  Ni  Ni139  1  0.56340400  0.41268100  0.76325800  1
  Ni  Ni140  1  0.83613200  0.86722600  0.80871200  1
  Ni  Ni141  1  0.56340400  0.91268100  0.76325800  1
  Ni  Ni142  1  0.33613200  0.86722600  0.80871200  1
  Ni  Ni143  1  0.69555700  0.15490700  0.77103100  1
  Ni  Ni144  1  0.41926700  0.20095500  0.72498300  1
  Ni  Ni145  1  0.18902600  0.15490700  0.77103100  1
  Ni  Ni146  1  0.43125200  0.67045500  0.75548400  1
  Ni  Ni147  1  0.70754200  0.62440600  0.80153200  1
  Ni  Ni148  1  0.93778300  0.67045500  0.75548400  1
