# generated using pymatgen
data_MgP4
_symmetry_space_group_name_H-M   'P 1'
_cell_length_a   5.12288200
_cell_length_b   7.59593174
_cell_length_c   41.09478400
_cell_angle_alpha   88.07320358
_cell_angle_beta   90.00000000
_cell_angle_gamma   90.00000000
_symmetry_Int_Tables_number   1
_chemical_formula_structural   MgP4
_chemical_formula_sum   'Mg10 P40'
_cell_volume   1598.21973233
_cell_formula_units_Z   10
loop_
 _symmetry_equiv_pos_site_id
 _symmetry_equiv_pos_as_xyz
  1  'x, y, z'
loop_
 _atom_site_type_symbol
 _atom_site_label
 _atom_site_symmetry_multiplicity
 _atom_site_fract_x
 _atom_site_fract_y
 _atom_site_fract_z
 _atom_site_occupancy
  Mg  Mg0  1  1.00000000  0.93750000  0.25000000  1
  Mg  Mg1  1  0.50000000  0.43750000  0.25000000  1
  Mg  Mg2  1  0.00000000  0.81250000  0.37500000  1
  Mg  Mg3  1  0.50000000  0.31250000  0.37500000  1
  Mg  Mg4  1  0.00000000  0.68750000  0.50000000  1
  Mg  Mg5  1  0.50000000  0.18750000  0.50000000  1
  Mg  Mg6  1  1.00000000  0.56250000  0.62500000  1
  Mg  Mg7  1  0.50000000  0.06250000  0.62500000  1
  Mg  Mg8  1  0.00000000  0.43750000  0.75000000  1
  Mg  Mg9  1  0.50000000  0.93750000  0.75000000  1
  P  P10  1  0.29223200  0.15955900  0.28161900  1
  P  P11  1  0.79223200  0.21544100  0.21838100  1
  P  P12  1  0.70776800  0.71544100  0.21838100  1
  P  P13  1  0.20776800  0.65955900  0.28161900  1
  P  P14  1  0.89159400  0.48742900  0.29961100  1
  P  P15  1  0.39159400  0.88757100  0.20038900  1
  P  P16  1  0.10840600  0.38757100  0.20038900  1
  P  P17  1  0.60840600  0.98742900  0.29961100  1
  P  P18  1  0.29223200  0.03455900  0.40661900  1
  P  P19  1  0.79223200  0.09044100  0.34338100  1
  P  P20  1  0.70776800  0.59044100  0.34338100  1
  P  P21  1  0.20776800  0.53455900  0.40661900  1
  P  P22  1  0.89159400  0.36242900  0.42461100  1
  P  P23  1  0.39159400  0.76257100  0.32538900  1
  P  P24  1  0.10840600  0.26257100  0.32538900  1
  P  P25  1  0.60840600  0.86242900  0.42461100  1
  P  P26  1  0.29223200  0.90955900  0.53161900  1
  P  P27  1  0.79223200  0.96544100  0.46838100  1
  P  P28  1  0.70776800  0.46544100  0.46838100  1
  P  P29  1  0.20776800  0.40955900  0.53161900  1
  P  P30  1  0.89159400  0.23742900  0.54961100  1
  P  P31  1  0.39159400  0.63757100  0.45038900  1
  P  P32  1  0.10840600  0.13757100  0.45038900  1
  P  P33  1  0.60840600  0.73742900  0.54961100  1
  P  P34  1  0.29223200  0.78455900  0.65661900  1
  P  P35  1  0.79223200  0.84044100  0.59338100  1
  P  P36  1  0.70776800  0.34044100  0.59338100  1
  P  P37  1  0.20776800  0.28455900  0.65661900  1
  P  P38  1  0.89159400  0.11242900  0.67461100  1
  P  P39  1  0.39159400  0.51257100  0.57538900  1
  P  P40  1  0.10840600  0.01257100  0.57538900  1
  P  P41  1  0.60840600  0.61242900  0.67461100  1
  P  P42  1  0.29223200  0.65955900  0.78161900  1
  P  P43  1  0.79223200  0.71544100  0.71838100  1
  P  P44  1  0.70776800  0.21544100  0.71838100  1
  P  P45  1  0.20776800  0.15955900  0.78161900  1
  P  P46  1  0.89159400  0.98742900  0.79961100  1
  P  P47  1  0.39159400  0.38757100  0.70038900  1
  P  P48  1  0.10840600  0.88757100  0.70038900  1
  P  P49  1  0.60840600  0.48742900  0.79961100  1
