# generated using pymatgen
data_Mg38Ir59
_symmetry_space_group_name_H-M   'P 1'
_cell_length_a   5.24707500
_cell_length_b   8.54477426
_cell_length_c   55.75889500
_cell_angle_alpha   88.31672616
_cell_angle_beta   90.00000000
_cell_angle_gamma   90.00000000
_symmetry_Int_Tables_number   1
_chemical_formula_structural   Mg38Ir59
_chemical_formula_sum   'Mg38 Ir59'
_cell_volume   2498.87525280
_cell_formula_units_Z   1
loop_
 _symmetry_equiv_pos_site_id
 _symmetry_equiv_pos_as_xyz
  1  'x, y, z'
loop_
 _atom_site_type_symbol
 _atom_site_label
 _atom_site_symmetry_multiplicity
 _atom_site_fract_x
 _atom_site_fract_y
 _atom_site_fract_z
 _atom_site_occupancy
  Mg  Mg0  1  0.50000000  0.85464900  0.22995500  1
  Mg  Mg1  1  0.00000000  0.00388400  0.25004500  1
  Mg  Mg2  1  1.00000000  0.48081800  0.30514400  1
  Mg  Mg3  1  0.50000000  0.37771500  0.17485600  1
  Mg  Mg4  1  0.50000000  0.49834500  0.22641300  1
  Mg  Mg5  1  0.00000000  0.36018800  0.25358700  1
  Mg  Mg6  1  0.50000000  0.98458700  0.18256700  1
  Mg  Mg7  1  1.00000000  0.87394600  0.29743300  1
  Mg  Mg8  1  0.50000000  0.67150200  0.31632300  1
  Mg  Mg9  1  0.00000000  0.85369800  0.49701100  1
  Mg  Mg10  1  0.00000000  0.68798300  0.39662100  1
  Mg  Mg11  1  0.50000000  0.83721700  0.41671200  1
  Mg  Mg12  1  0.50000000  0.31415100  0.47181100  1
  Mg  Mg13  1  0.00000000  0.21104800  0.34152200  1
  Mg  Mg14  1  0.00000000  0.33167900  0.39308000  1
  Mg  Mg15  1  0.50000000  0.19352100  0.42025300  1
  Mg  Mg16  1  0.00000000  0.81792000  0.34923300  1
  Mg  Mg17  1  0.50000000  0.70727900  0.46410000  1
  Mg  Mg18  1  0.00000000  0.50483500  0.48298900  1
  Mg  Mg19  1  0.50000000  0.02036500  0.33034400  1
  Mg  Mg20  1  0.50000000  0.52131600  0.56328800  1
  Mg  Mg21  1  1.00000000  0.67055000  0.58337900  1
  Mg  Mg22  1  0.00000000  0.14748500  0.63847800  1
  Mg  Mg23  1  0.50000000  0.04438200  0.50818900  1
  Mg  Mg24  1  0.50000000  0.16501200  0.55974700  1
  Mg  Mg25  1  1.00000000  0.02685500  0.58692000  1
  Mg  Mg26  1  0.50000000  0.65125400  0.51590000  1
  Mg  Mg27  1  0.00000000  0.54061300  0.63076700  1
  Mg  Mg28  1  0.50000000  0.33816800  0.64965600  1
  Mg  Mg29  1  0.00000000  0.35464900  0.72995500  1
  Mg  Mg30  1  0.50000000  0.50388400  0.75004500  1
  Mg  Mg31  1  0.50000000  0.98081800  0.80514400  1
  Mg  Mg32  1  0.00000000  0.87771500  0.67485600  1
  Mg  Mg33  1  0.00000000  0.99834500  0.72641300  1
  Mg  Mg34  1  0.50000000  0.86018800  0.75358700  1
  Mg  Mg35  1  1.00000000  0.48458700  0.68256700  1
  Mg  Mg36  1  0.50000000  0.37394600  0.79743300  1
  Mg  Mg37  1  0.50000000  0.68703100  0.66367700  1
  Ir  Ir38  1  0.00000000  0.94057200  0.20037400  1
  Ir  Ir39  1  0.50000000  0.91796100  0.27962600  1
  Ir  Ir40  1  0.24951300  0.67238700  0.26735200  1
  Ir  Ir41  1  0.25048700  0.18614700  0.21264800  1
  Ir  Ir42  1  0.74951300  0.18614700  0.21264800  1
  Ir  Ir43  1  0.75048700  0.67238700  0.26735200  1
  Ir  Ir44  1  0.00000000  0.17926700  0.49000000  1
  Ir  Ir45  1  0.50000000  0.17489800  0.25134500  1
  Ir  Ir46  1  0.00000000  0.68363500  0.22865500  1
  Ir  Ir47  1  0.50000000  0.42432400  0.27805700  1
  Ir  Ir48  1  1.00000000  0.43420900  0.20194300  1
  Ir  Ir49  1  0.26606200  0.68643700  0.18692300  1
  Ir  Ir50  1  0.23393800  0.17209600  0.29307700  1
  Ir  Ir51  1  0.76606200  0.17209600  0.29307700  1
  Ir  Ir52  1  0.73393800  0.68643700  0.18692300  1
  Ir  Ir53  1  0.50000000  0.77390500  0.36704100  1
  Ir  Ir54  1  0.00000000  0.75129400  0.44629300  1
  Ir  Ir55  1  0.74951300  0.50572000  0.43401900  1
  Ir  Ir56  1  0.75048700  0.01948000  0.37931500  1
  Ir  Ir57  1  0.24951300  0.01948000  0.37931500  1
  Ir  Ir58  1  0.25048700  0.50572000  0.43401900  1
  Ir  Ir59  1  0.50000000  0.34593300  0.32333300  1
  Ir  Ir60  1  0.00000000  0.00823100  0.41801200  1
  Ir  Ir61  1  0.50000000  0.51696800  0.39532100  1
  Ir  Ir62  1  0.00000000  0.25765800  0.44472400  1
  Ir  Ir63  1  0.50000000  0.26754200  0.36860900  1
  Ir  Ir64  1  0.76606200  0.51977000  0.35358900  1
  Ir  Ir65  1  0.73393800  0.00542900  0.45974400  1
  Ir  Ir66  1  0.26606200  0.00542900  0.45974400  1
  Ir  Ir67  1  0.23393800  0.51977000  0.35358900  1
  Ir  Ir68  1  0.00000000  0.60723900  0.53370700  1
  Ir  Ir69  1  0.50000000  0.58462800  0.61295900  1
  Ir  Ir70  1  0.24951300  0.33905300  0.60068500  1
  Ir  Ir71  1  0.25048700  0.85281300  0.54598100  1
  Ir  Ir72  1  0.74951300  0.85281300  0.54598100  1
  Ir  Ir73  1  0.75048700  0.33905300  0.60068500  1
  Ir  Ir74  1  0.50000000  0.84156500  0.58467900  1
  Ir  Ir75  1  0.00000000  0.35030200  0.56198800  1
  Ir  Ir76  1  0.50000000  0.09099100  0.61139100  1
  Ir  Ir77  1  0.00000000  0.10087500  0.53527600  1
  Ir  Ir78  1  0.26606200  0.35310400  0.52025600  1
  Ir  Ir79  1  0.23393800  0.83876300  0.62641100  1
  Ir  Ir80  1  0.76606200  0.83876300  0.62641100  1
  Ir  Ir81  1  0.73393800  0.35310400  0.52025600  1
  Ir  Ir82  1  0.50000000  0.44057200  0.70037400  1
  Ir  Ir83  1  1.00000000  0.41796100  0.77962600  1
  Ir  Ir84  1  0.74951300  0.17238700  0.76735200  1
  Ir  Ir85  1  0.75048700  0.68614700  0.71264800  1
  Ir  Ir86  1  0.24951300  0.68614700  0.71264800  1
  Ir  Ir87  1  0.25048700  0.17238700  0.76735200  1
  Ir  Ir88  1  0.50000000  0.01260000  0.65666700  1
  Ir  Ir89  1  1.00000000  0.67489800  0.75134500  1
  Ir  Ir90  1  0.50000000  0.18363500  0.72865500  1
  Ir  Ir91  1  0.00000000  0.92432400  0.77805700  1
  Ir  Ir92  1  0.50000000  0.93420900  0.70194300  1
  Ir  Ir93  1  0.76606200  0.18643700  0.68692300  1
  Ir  Ir94  1  0.73393800  0.67209600  0.79307700  1
  Ir  Ir95  1  0.26606200  0.67209600  0.79307700  1
  Ir  Ir96  1  0.23393800  0.18643700  0.68692300  1
