# generated using pymatgen
data_PrMg14
_symmetry_space_group_name_H-M   'P 1'
_cell_length_a   7.86707097
_cell_length_b   7.86707161
_cell_length_c   41.13233300
_cell_angle_alpha   89.89596976
_cell_angle_beta   89.89596975
_cell_angle_gamma   81.82603946
_symmetry_Int_Tables_number   1
_chemical_formula_structural   PrMg14
_chemical_formula_sum   'Pr4 Mg56'
_cell_volume   2519.84413203
_cell_formula_units_Z   4
loop_
 _symmetry_equiv_pos_site_id
 _symmetry_equiv_pos_as_xyz
  1  'x, y, z'
loop_
 _atom_site_type_symbol
 _atom_site_label
 _atom_site_symmetry_multiplicity
 _atom_site_fract_x
 _atom_site_fract_y
 _atom_site_fract_z
 _atom_site_occupancy
  Pr  Pr0  1  0.21413800  0.21413800  0.71153800  1
  Pr  Pr1  1  0.46413800  0.46413800  0.58653800  1
  Pr  Pr2  1  0.71413800  0.71413800  0.46153800  1
  Pr  Pr3  1  0.96413800  0.96413800  0.33653800  1
  Mg  Mg4  1  0.21413800  0.71413800  0.71153800  1
  Mg  Mg5  1  0.58913800  0.08913800  0.77403800  1
  Mg  Mg6  1  0.71413800  0.21413800  0.71153800  1
  Mg  Mg7  1  0.08913800  0.58913800  0.77403800  1
  Mg  Mg8  1  0.47832500  0.47832500  0.75557000  1
  Mg  Mg9  1  0.86188800  0.56638700  0.71153800  1
  Mg  Mg10  1  0.56638700  0.86188800  0.71153800  1
  Mg  Mg11  1  0.69995000  0.69995000  0.79250700  1
  Mg  Mg12  1  0.92931200  0.92931200  0.74740100  1
  Mg  Mg13  1  0.30223800  0.87603700  0.77403800  1
  Mg  Mg14  1  0.87603700  0.30223800  0.77403800  1
  Mg  Mg15  1  0.24896300  0.24896300  0.80067600  1
  Mg  Mg16  1  0.46413800  0.96413800  0.58653800  1
  Mg  Mg17  1  0.83913800  0.33913800  0.64903800  1
  Mg  Mg18  1  0.96413800  0.46413800  0.58653800  1
  Mg  Mg19  1  0.33913800  0.83913800  0.64903800  1
  Mg  Mg20  1  0.72832500  0.72832500  0.63057000  1
  Mg  Mg21  1  0.11188800  0.81638700  0.58653800  1
  Mg  Mg22  1  0.81638700  0.11188800  0.58653800  1
  Mg  Mg23  1  0.94995000  0.94995000  0.66750700  1
  Mg  Mg24  1  0.17931200  0.17931200  0.62240100  1
  Mg  Mg25  1  0.55223800  0.12603700  0.64903800  1
  Mg  Mg26  1  0.12603700  0.55223800  0.64903800  1
  Mg  Mg27  1  0.49896300  0.49896300  0.67567600  1
  Mg  Mg28  1  0.71413800  0.21413800  0.46153800  1
  Mg  Mg29  1  0.08913800  0.58913800  0.52403800  1
  Mg  Mg30  1  0.21413800  0.71413800  0.46153800  1
  Mg  Mg31  1  0.58913800  0.08913800  0.52403800  1
  Mg  Mg32  1  0.97832500  0.97832500  0.50557000  1
  Mg  Mg33  1  0.36188800  0.06638700  0.46153800  1
  Mg  Mg34  1  0.06638700  0.36188800  0.46153800  1
  Mg  Mg35  1  0.19995000  0.19995000  0.54250700  1
  Mg  Mg36  1  0.42931200  0.42931200  0.49740100  1
  Mg  Mg37  1  0.80223800  0.37603700  0.52403800  1
  Mg  Mg38  1  0.37603700  0.80223800  0.52403800  1
  Mg  Mg39  1  0.74896300  0.74896300  0.55067600  1
  Mg  Mg40  1  0.96413800  0.46413800  0.33653800  1
  Mg  Mg41  1  0.33913800  0.83913800  0.39903800  1
  Mg  Mg42  1  0.46413800  0.96413800  0.33653800  1
  Mg  Mg43  1  0.83913800  0.33913800  0.39903800  1
  Mg  Mg44  1  0.22832500  0.22832500  0.38057000  1
  Mg  Mg45  1  0.61188800  0.31638700  0.33653800  1
  Mg  Mg46  1  0.31638700  0.61188800  0.33653800  1
  Mg  Mg47  1  0.44995000  0.44995000  0.41750700  1
  Mg  Mg48  1  0.67931200  0.67931200  0.37240100  1
  Mg  Mg49  1  0.05223800  0.62603700  0.39903800  1
  Mg  Mg50  1  0.62603700  0.05223800  0.39903800  1
  Mg  Mg51  1  0.99896300  0.99896300  0.42567600  1
  Mg  Mg52  1  0.58913800  0.08913800  0.27403800  1
  Mg  Mg53  1  0.08913800  0.58913800  0.27403800  1
  Mg  Mg54  1  0.47832500  0.47832500  0.25557000  1
  Mg  Mg55  1  0.69995000  0.69995000  0.29250700  1
  Mg  Mg56  1  0.92931200  0.92931200  0.24740100  1
  Mg  Mg57  1  0.30223800  0.87603700  0.27403800  1
  Mg  Mg58  1  0.87603700  0.30223800  0.27403800  1
  Mg  Mg59  1  0.24896300  0.24896300  0.30067600  1
