# generated using pymatgen
data_Mg22Ir31
_symmetry_space_group_name_H-M   'P 1'
_cell_length_a   8.54477469
_cell_length_b   9.72091536
_cell_length_c   40.45091800
_cell_angle_alpha   92.27818184
_cell_angle_beta   91.63073542
_cell_angle_gamma   96.80090534
_symmetry_Int_Tables_number   1
_chemical_formula_structural   Mg22Ir31
_chemical_formula_sum   'Mg44 Ir62'
_cell_volume   3331.83388964
_cell_formula_units_Z   2
loop_
 _symmetry_equiv_pos_site_id
 _symmetry_equiv_pos_as_xyz
  1  'x, y, z'
loop_
 _atom_site_type_symbol
 _atom_site_label
 _atom_site_symmetry_multiplicity
 _atom_site_fract_x
 _atom_site_fract_y
 _atom_site_fract_z
 _atom_site_occupancy
  Mg  Mg0  1  0.91533800  0.36283800  0.69998300  1
  Mg  Mg1  1  0.08466200  0.41334700  0.77001700  1
  Mg  Mg2  1  0.61669600  0.72327900  0.79067900  1
  Mg  Mg3  1  0.38330400  0.92790600  0.80432100  1
  Mg  Mg4  1  0.55549200  0.34291700  0.69865500  1
  Mg  Mg5  1  0.44450800  0.43326800  0.77134500  1
  Mg  Mg6  1  0.99788700  0.97128100  0.80721300  1
  Mg  Mg7  1  0.00211300  0.67990400  0.78778700  1
  Mg  Mg8  1  0.81855800  0.84865800  0.73237100  1
  Mg  Mg9  1  0.18144200  0.92752700  0.73762900  1
  Mg  Mg10  1  0.91533800  0.48783800  0.57498300  1
  Mg  Mg11  1  0.08466200  0.53834700  0.64501700  1
  Mg  Mg12  1  0.61669600  0.84827900  0.66567900  1
  Mg  Mg13  1  0.38330400  0.05290600  0.67932100  1
  Mg  Mg14  1  0.55549200  0.46791700  0.57365500  1
  Mg  Mg15  1  0.44450800  0.55826800  0.64634500  1
  Mg  Mg16  1  0.99788700  0.09628100  0.68221300  1
  Mg  Mg17  1  0.00211300  0.80490400  0.66278700  1
  Mg  Mg18  1  0.81855800  0.97365800  0.60737100  1
  Mg  Mg19  1  0.18144200  0.05252700  0.61262900  1
  Mg  Mg20  1  0.91533800  0.61283800  0.44998300  1
  Mg  Mg21  1  0.08466200  0.66334700  0.52001700  1
  Mg  Mg22  1  0.61669600  0.97327900  0.54067900  1
  Mg  Mg23  1  0.38330400  0.17790600  0.55432100  1
  Mg  Mg24  1  0.55549200  0.59291700  0.44865500  1
  Mg  Mg25  1  0.44450800  0.68326800  0.52134500  1
  Mg  Mg26  1  0.99788700  0.22128100  0.55721300  1
  Mg  Mg27  1  0.00211300  0.92990400  0.53778700  1
  Mg  Mg28  1  0.81855800  0.09865800  0.48237100  1
  Mg  Mg29  1  0.18144200  0.17752700  0.48762900  1
  Mg  Mg30  1  0.91533800  0.73783800  0.32498300  1
  Mg  Mg31  1  0.08466200  0.78834700  0.39501700  1
  Mg  Mg32  1  0.61669600  0.09827900  0.41567900  1
  Mg  Mg33  1  0.38330400  0.30290600  0.42932100  1
  Mg  Mg34  1  0.55549200  0.71791700  0.32365500  1
  Mg  Mg35  1  0.44450800  0.80826800  0.39634500  1
  Mg  Mg36  1  0.99788700  0.34628100  0.43221300  1
  Mg  Mg37  1  0.00211300  0.05490400  0.41278700  1
  Mg  Mg38  1  0.81855800  0.22365800  0.35737100  1
  Mg  Mg39  1  0.18144200  0.30252700  0.36262900  1
  Mg  Mg40  1  0.61669600  0.22327900  0.29067900  1
  Mg  Mg41  1  0.38330400  0.42790600  0.30432100  1
  Mg  Mg42  1  0.99788700  0.47128100  0.30721300  1
  Mg  Mg43  1  0.00211300  0.17990400  0.28778700  1
  Ir  Ir44  1  0.97167900  0.13394500  0.75139000  1
  Ir  Ir45  1  0.02832100  0.64224000  0.71861000  1
  Ir  Ir46  1  0.77047200  0.47950900  0.80769600  1
  Ir  Ir47  1  0.22952800  0.17167600  0.78730400  1
  Ir  Ir48  1  0.22952800  0.23429800  0.72468200  1
  Ir  Ir49  1  0.77047200  0.54188700  0.74531800  1
  Ir  Ir50  1  0.50000000  0.88809200  0.73500000  1
  Ir  Ir51  1  0.25697700  0.48316100  0.70800500  1
  Ir  Ir52  1  0.74302300  0.29302400  0.76199500  1
  Ir  Ir53  1  0.53311500  0.63341400  0.71802100  1
  Ir  Ir54  1  0.46688500  0.14277100  0.75197900  1
  Ir  Ir55  1  0.70409300  0.02502400  0.77960400  1
  Ir  Ir56  1  0.29590700  0.75116100  0.69039600  1
  Ir  Ir57  1  0.29590700  0.68464600  0.75691200  1
  Ir  Ir58  1  0.70409300  0.09153900  0.71308800  1
  Ir  Ir59  1  0.97167900  0.25894500  0.62639000  1
  Ir  Ir60  1  0.02832100  0.76724000  0.59361000  1
  Ir  Ir61  1  0.77047200  0.60450900  0.68269600  1
  Ir  Ir62  1  0.22952800  0.29667600  0.66230400  1
  Ir  Ir63  1  0.22952800  0.35929800  0.59968200  1
  Ir  Ir64  1  0.77047200  0.66688700  0.62031800  1
  Ir  Ir65  1  0.50000000  0.01309200  0.61000000  1
  Ir  Ir66  1  0.25697700  0.60816100  0.58300500  1
  Ir  Ir67  1  0.74302300  0.41802400  0.63699500  1
  Ir  Ir68  1  0.53311500  0.75841400  0.59302100  1
  Ir  Ir69  1  0.46688500  0.26777100  0.62697900  1
  Ir  Ir70  1  0.70409300  0.15002400  0.65460400  1
  Ir  Ir71  1  0.29590700  0.87616100  0.56539600  1
  Ir  Ir72  1  0.29590700  0.80964600  0.63191200  1
  Ir  Ir73  1  0.70409300  0.21653900  0.58808800  1
  Ir  Ir74  1  0.97167900  0.38394500  0.50139000  1
  Ir  Ir75  1  0.02832100  0.89224000  0.46861000  1
  Ir  Ir76  1  0.77047200  0.72950900  0.55769600  1
  Ir  Ir77  1  0.22952800  0.42167600  0.53730400  1
  Ir  Ir78  1  0.22952800  0.48429800  0.47468200  1
  Ir  Ir79  1  0.77047200  0.79188700  0.49531800  1
  Ir  Ir80  1  0.50000000  0.13809200  0.48500000  1
  Ir  Ir81  1  0.25697700  0.73316100  0.45800500  1
  Ir  Ir82  1  0.74302300  0.54302400  0.51199500  1
  Ir  Ir83  1  0.53311500  0.88341400  0.46802100  1
  Ir  Ir84  1  0.46688500  0.39277100  0.50197900  1
  Ir  Ir85  1  0.70409300  0.27502400  0.52960400  1
  Ir  Ir86  1  0.29590700  0.00116100  0.44039600  1
  Ir  Ir87  1  0.29590700  0.93464600  0.50691200  1
  Ir  Ir88  1  0.70409300  0.34153900  0.46308800  1
  Ir  Ir89  1  0.97167900  0.50894500  0.37639000  1
  Ir  Ir90  1  0.02832100  0.01724000  0.34361000  1
  Ir  Ir91  1  0.77047200  0.85450900  0.43269600  1
  Ir  Ir92  1  0.22952800  0.54667600  0.41230400  1
  Ir  Ir93  1  0.22952800  0.60929800  0.34968200  1
  Ir  Ir94  1  0.77047200  0.91688700  0.37031800  1
  Ir  Ir95  1  0.50000000  0.26309200  0.36000000  1
  Ir  Ir96  1  0.25697700  0.85816100  0.33300500  1
  Ir  Ir97  1  0.74302300  0.66802400  0.38699500  1
  Ir  Ir98  1  0.53311500  0.00841400  0.34302100  1
  Ir  Ir99  1  0.46688500  0.51777100  0.37697900  1
  Ir  Ir100  1  0.70409300  0.40002400  0.40460400  1
  Ir  Ir101  1  0.29590700  0.12616100  0.31539600  1
  Ir  Ir102  1  0.29590700  0.05964600  0.38191200  1
  Ir  Ir103  1  0.70409300  0.46653900  0.33808800  1
  Ir  Ir104  1  0.77047200  0.97950900  0.30769600  1
  Ir  Ir105  1  0.22952800  0.67167600  0.28730400  1
