# generated using pymatgen
data_Mg6B11
_symmetry_space_group_name_H-M   'P 1'
_cell_length_a   3.08673731
_cell_length_b   4.66300647
_cell_length_c   42.52784500
_cell_angle_alpha   92.82383175
_cell_angle_beta   87.92023673
_cell_angle_gamma   109.32834826
_symmetry_Int_Tables_number   1
_chemical_formula_structural   Mg6B11
_chemical_formula_sum   'Mg12 B22'
_cell_volume   576.79148824
_cell_formula_units_Z   2
loop_
 _symmetry_equiv_pos_site_id
 _symmetry_equiv_pos_as_xyz
  1  'x, y, z'
loop_
 _atom_site_type_symbol
 _atom_site_label
 _atom_site_symmetry_multiplicity
 _atom_site_fract_x
 _atom_site_fract_y
 _atom_site_fract_z
 _atom_site_occupancy
  Mg  Mg0  1  0.35833300  0.67916700  0.24166700  1
  Mg  Mg1  1  0.65833300  0.32916700  0.29166700  1
  Mg  Mg2  1  0.95833300  0.97916700  0.34166700  1
  Mg  Mg3  1  0.25833300  0.62916700  0.39166700  1
  Mg  Mg4  1  0.55833300  0.27916700  0.44166700  1
  Mg  Mg5  1  0.85833300  0.92916700  0.49166700  1
  Mg  Mg6  1  0.15833300  0.57916700  0.54166700  1
  Mg  Mg7  1  0.45833300  0.22916700  0.59166700  1
  Mg  Mg8  1  0.75833300  0.87916700  0.64166700  1
  Mg  Mg9  1  0.05833300  0.52916700  0.69166700  1
  Mg  Mg10  1  0.35833300  0.17916700  0.74166700  1
  Mg  Mg11  1  0.65833300  0.82916700  0.79166700  1
  B  B12  1  0.94166700  0.88750000  0.28333300  1
  B  B13  1  0.07500000  0.12083300  0.25000000  1
  B  B14  1  0.24166700  0.53750000  0.33333300  1
  B  B15  1  0.37500000  0.77083300  0.30000000  1
  B  B16  1  0.54166700  0.18750000  0.38333300  1
  B  B17  1  0.67500000  0.42083300  0.35000000  1
  B  B18  1  0.84166700  0.83750000  0.43333300  1
  B  B19  1  0.97500000  0.07083300  0.40000000  1
  B  B20  1  0.14166700  0.48750000  0.48333300  1
  B  B21  1  0.27500000  0.72083300  0.45000000  1
  B  B22  1  0.44166700  0.13750000  0.53333300  1
  B  B23  1  0.57500000  0.37083300  0.50000000  1
  B  B24  1  0.74166700  0.78750000  0.58333300  1
  B  B25  1  0.87500000  0.02083300  0.55000000  1
  B  B26  1  0.04166700  0.43750000  0.63333300  1
  B  B27  1  0.17500000  0.67083300  0.60000000  1
  B  B28  1  0.34166700  0.08750000  0.68333300  1
  B  B29  1  0.47500000  0.32083300  0.65000000  1
  B  B30  1  0.64166700  0.73750000  0.73333300  1
  B  B31  1  0.77500000  0.97083300  0.70000000  1
  B  B32  1  0.94166700  0.38750000  0.78333300  1
  B  B33  1  0.07500000  0.62083300  0.75000000  1
