# generated using pymatgen
data_Mg2Au
_symmetry_space_group_name_H-M   'P 1'
_cell_length_a   4.38771400
_cell_length_b   20.77822484
_cell_length_c   46.87993600
_cell_angle_alpha   90.57431790
_cell_angle_beta   90.00000000
_cell_angle_gamma   90.00000000
_symmetry_Int_Tables_number   1
_chemical_formula_structural   Mg2Au
_chemical_formula_sum   'Mg80 Au40'
_cell_volume   4273.77785998
_cell_formula_units_Z   40
loop_
 _symmetry_equiv_pos_site_id
 _symmetry_equiv_pos_as_xyz
  1  'x, y, z'
loop_
 _atom_site_type_symbol
 _atom_site_label
 _atom_site_symmetry_multiplicity
 _atom_site_fract_x
 _atom_site_fract_y
 _atom_site_fract_z
 _atom_site_occupancy
  Mg  Mg0  1  0.75000000  0.89931400  0.32348600  1
  Mg  Mg1  1  0.75000000  0.41659000  0.30621000  1
  Mg  Mg2  1  0.25000000  0.82366900  0.28762500  1
  Mg  Mg3  1  0.25000000  0.30639300  0.30490200  1
  Mg  Mg4  1  0.75000000  0.04338400  0.30233700  1
  Mg  Mg5  1  0.25000000  0.67959900  0.30877400  1
  Mg  Mg6  1  0.75000000  0.20194600  0.31202000  1
  Mg  Mg7  1  0.25000000  0.52103700  0.29909100  1
  Mg  Mg8  1  0.75000000  0.73264700  0.49015200  1
  Mg  Mg9  1  0.75000000  0.24992400  0.47287600  1
  Mg  Mg10  1  0.25000000  0.65700200  0.45429200  1
  Mg  Mg11  1  0.25000000  0.13972600  0.47156800  1
  Mg  Mg12  1  0.75000000  0.17595400  0.37885500  1
  Mg  Mg13  1  0.75000000  0.69329900  0.36151000  1
  Mg  Mg14  1  0.25000000  0.38036200  0.39892300  1
  Mg  Mg15  1  0.25000000  0.86301800  0.41626800  1
  Mg  Mg16  1  0.75000000  0.45474600  0.43560500  1
  Mg  Mg17  1  0.75000000  0.97374300  0.41660800  1
  Mg  Mg18  1  0.25000000  0.10157000  0.34217300  1
  Mg  Mg19  1  0.25000000  0.58257400  0.36117000  1
  Mg  Mg20  1  0.75000000  0.87671800  0.46900400  1
  Mg  Mg21  1  0.75000000  0.47738900  0.36833200  1
  Mg  Mg22  1  0.25000000  0.51293200  0.47544100  1
  Mg  Mg23  1  0.25000000  0.07892700  0.40944600  1
  Mg  Mg24  1  0.75000000  0.32061300  0.35923600  1
  Mg  Mg25  1  0.75000000  0.75704000  0.42280900  1
  Mg  Mg26  1  0.25000000  0.23570300  0.41854200  1
  Mg  Mg27  1  0.25000000  0.79927600  0.35496900  1
  Mg  Mg28  1  0.75000000  0.59923500  0.41473100  1
  Mg  Mg29  1  0.75000000  0.03527900  0.47868700  1
  Mg  Mg30  1  0.25000000  0.95708100  0.36304700  1
  Mg  Mg31  1  0.25000000  0.35437000  0.46575800  1
  Mg  Mg32  1  0.75000000  0.56598100  0.65681900  1
  Mg  Mg33  1  0.75000000  0.08325700  0.63954300  1
  Mg  Mg34  1  0.25000000  0.49033600  0.62095900  1
  Mg  Mg35  1  0.25000000  0.97305900  0.63823500  1
  Mg  Mg36  1  0.75000000  0.00928700  0.54552200  1
  Mg  Mg37  1  0.75000000  0.52663200  0.52817700  1
  Mg  Mg38  1  0.25000000  0.21369600  0.56558900  1
  Mg  Mg39  1  0.25000000  0.69635100  0.58293400  1
  Mg  Mg40  1  0.75000000  0.28807900  0.60227100  1
  Mg  Mg41  1  0.75000000  0.80707600  0.58327400  1
  Mg  Mg42  1  0.25000000  0.93490400  0.50884000  1
  Mg  Mg43  1  0.25000000  0.41590700  0.52783700  1
  Mg  Mg44  1  0.75000000  0.71005100  0.63567000  1
  Mg  Mg45  1  0.75000000  0.31072300  0.53499900  1
  Mg  Mg46  1  0.25000000  0.34626500  0.64210700  1
  Mg  Mg47  1  0.25000000  0.91226000  0.57611200  1
  Mg  Mg48  1  0.75000000  0.15394700  0.52590300  1
  Mg  Mg49  1  0.75000000  0.59037400  0.58947600  1
  Mg  Mg50  1  0.25000000  0.06903600  0.58520800  1
  Mg  Mg51  1  0.25000000  0.63260900  0.52163500  1
  Mg  Mg52  1  0.75000000  0.43256800  0.58139700  1
  Mg  Mg53  1  0.75000000  0.86861200  0.64535300  1
  Mg  Mg54  1  0.25000000  0.79041500  0.52971400  1
  Mg  Mg55  1  0.25000000  0.18770400  0.63242500  1
  Mg  Mg56  1  0.75000000  0.39931400  0.82348600  1
  Mg  Mg57  1  0.75000000  0.91659000  0.80621000  1
  Mg  Mg58  1  0.25000000  0.32366900  0.78762500  1
  Mg  Mg59  1  0.25000000  0.80639300  0.80490200  1
  Mg  Mg60  1  0.75000000  0.84262000  0.71218800  1
  Mg  Mg61  1  0.75000000  0.35996500  0.69484300  1
  Mg  Mg62  1  0.25000000  0.04702900  0.73225600  1
  Mg  Mg63  1  0.25000000  0.52968400  0.74960100  1
  Mg  Mg64  1  0.75000000  0.12141300  0.76893800  1
  Mg  Mg65  1  0.75000000  0.64040900  0.74994100  1
  Mg  Mg66  1  0.25000000  0.76823700  0.67550700  1
  Mg  Mg67  1  0.25000000  0.24924000  0.69450300  1
  Mg  Mg68  1  0.75000000  0.54338400  0.80233700  1
  Mg  Mg69  1  0.75000000  0.14405600  0.70166500  1
  Mg  Mg70  1  0.25000000  0.17959900  0.80877400  1
  Mg  Mg71  1  0.25000000  0.74559400  0.74277900  1
  Mg  Mg72  1  0.75000000  0.98728000  0.69257000  1
  Mg  Mg73  1  0.75000000  0.42370700  0.75614200  1
  Mg  Mg74  1  0.25000000  0.90237000  0.75187500  1
  Mg  Mg75  1  0.25000000  0.46594200  0.68830200  1
  Mg  Mg76  1  0.75000000  0.26590200  0.74806400  1
  Mg  Mg77  1  0.75000000  0.70194600  0.81202000  1
  Mg  Mg78  1  0.25000000  0.62374800  0.69638000  1
  Mg  Mg79  1  0.25000000  0.02103700  0.79909100  1
  Au  Au80  1  0.75000000  0.76656600  0.31287300  1
  Au  Au81  1  0.25000000  0.95641700  0.29823800  1
  Au  Au82  1  0.75000000  0.58594800  0.32535100  1
  Au  Au83  1  0.25000000  0.13703500  0.28576000  1
  Au  Au84  1  0.75000000  0.59989900  0.47954000  1
  Au  Au85  1  0.75000000  0.14373700  0.43570200  1
  Au  Au86  1  0.25000000  0.78975100  0.46490500  1
  Au  Au87  1  0.25000000  0.41257900  0.34207600  1
  Au  Au88  1  0.75000000  0.32294000  0.42401900  1
  Au  Au89  1  0.75000000  0.86656200  0.38039600  1
  Au  Au90  1  0.25000000  0.23337600  0.35375900  1
  Au  Au91  1  0.25000000  0.68975400  0.39738100  1
  Au  Au92  1  0.75000000  0.04412200  0.36717700  1
  Au  Au93  1  0.75000000  0.41928100  0.49201800  1
  Au  Au94  1  0.25000000  0.51219400  0.41060100  1
  Au  Au95  1  0.25000000  0.97036800  0.45242600  1
  Au  Au96  1  0.75000000  0.43323200  0.64620700  1
  Au  Au97  1  0.75000000  0.97707000  0.60236800  1
  Au  Au98  1  0.25000000  0.62308400  0.63157100  1
  Au  Au99  1  0.25000000  0.24591300  0.50874300  1
  Au  Au100  1  0.75000000  0.15627300  0.59068500  1
  Au  Au101  1  0.75000000  0.69989600  0.54706300  1
  Au  Au102  1  0.25000000  0.06671000  0.52042600  1
  Au  Au103  1  0.25000000  0.52308700  0.56404800  1
  Au  Au104  1  0.75000000  0.87745600  0.53384400  1
  Au  Au105  1  0.75000000  0.25261500  0.65868500  1
  Au  Au106  1  0.25000000  0.34552700  0.57726700  1
  Au  Au107  1  0.25000000  0.80370200  0.61909300  1
  Au  Au108  1  0.75000000  0.26656600  0.81287300  1
  Au  Au109  1  0.75000000  0.81040400  0.76903500  1
  Au  Au110  1  0.25000000  0.45641700  0.79823800  1
  Au  Au111  1  0.25000000  0.07924600  0.67540900  1
  Au  Au112  1  0.75000000  0.98960700  0.75735200  1
  Au  Au113  1  0.75000000  0.53322900  0.71373000  1
  Au  Au114  1  0.25000000  0.90004300  0.68709300  1
  Au  Au115  1  0.25000000  0.35642100  0.73071500  1
  Au  Au116  1  0.75000000  0.71078900  0.70051100  1
  Au  Au117  1  0.75000000  0.08594800  0.82535100  1
  Au  Au118  1  0.25000000  0.17886100  0.74393400  1
  Au  Au119  1  0.25000000  0.63703500  0.78576000  1
