# generated using pymatgen
data_Sr24Mg191
_symmetry_space_group_name_H-M   'P 1'
_cell_length_a   14.66206661
_cell_length_b   14.66206704
_cell_length_c   46.99963900
_cell_angle_alpha   88.35894800
_cell_angle_beta   91.64105205
_cell_angle_gamma   102.44927812
_symmetry_Int_Tables_number   1
_chemical_formula_structural   Sr24Mg191
_chemical_formula_sum   'Sr24 Mg191'
_cell_volume   9859.57673261
_cell_formula_units_Z   1
loop_
 _symmetry_equiv_pos_site_id
 _symmetry_equiv_pos_as_xyz
  1  'x, y, z'
loop_
 _atom_site_type_symbol
 _atom_site_label
 _atom_site_symmetry_multiplicity
 _atom_site_fract_x
 _atom_site_fract_y
 _atom_site_fract_z
 _atom_site_occupancy
  Sr  Sr0  1  0.94152700  0.39180600  0.25789500  1
  Sr  Sr1  1  0.40819400  0.25847300  0.20789500  1
  Sr  Sr2  1  0.07486000  0.92514000  0.20789500  1
  Sr  Sr3  1  0.27486000  0.72514000  0.25789500  1
  Sr  Sr4  1  0.34152700  0.99180600  0.35789500  1
  Sr  Sr5  1  0.80819400  0.85847300  0.30789500  1
  Sr  Sr6  1  0.47486000  0.52514000  0.30789500  1
  Sr  Sr7  1  0.67486000  0.32514000  0.35789500  1
  Sr  Sr8  1  0.74152700  0.59180600  0.45789500  1
  Sr  Sr9  1  0.20819400  0.45847300  0.40789500  1
  Sr  Sr10  1  0.87486000  0.12514000  0.40789500  1
  Sr  Sr11  1  0.07486000  0.92514000  0.45789500  1
  Sr  Sr12  1  0.14152700  0.19180600  0.55789500  1
  Sr  Sr13  1  0.60819400  0.05847300  0.50789500  1
  Sr  Sr14  1  0.27486000  0.72514000  0.50789500  1
  Sr  Sr15  1  0.47486000  0.52514000  0.55789500  1
  Sr  Sr16  1  0.54152700  0.79180600  0.65789500  1
  Sr  Sr17  1  0.00819400  0.65847300  0.60789500  1
  Sr  Sr18  1  0.67486000  0.32514000  0.60789500  1
  Sr  Sr19  1  0.87486000  0.12514000  0.65789500  1
  Sr  Sr20  1  0.94152700  0.39180600  0.75789500  1
  Sr  Sr21  1  0.40819400  0.25847300  0.70789500  1
  Sr  Sr22  1  0.07486000  0.92514000  0.70789500  1
  Sr  Sr23  1  0.27486000  0.72514000  0.75789500  1
  Mg  Mg24  1  0.85176000  0.98358700  0.23444600  1
  Mg  Mg25  1  0.54813600  0.78117100  0.28505000  1
  Mg  Mg26  1  0.35055200  0.48479500  0.23565400  1
  Mg  Mg27  1  0.21641300  0.94824000  0.28444600  1
  Mg  Mg28  1  0.54743500  0.11923200  0.24270500  1
  Mg  Mg29  1  0.68076800  0.65256500  0.19270500  1
  Mg  Mg30  1  0.80228600  0.53104700  0.22308400  1
  Mg  Mg31  1  0.66895300  0.99771400  0.27308400  1
  Mg  Mg32  1  0.37486000  0.12514000  0.28289500  1
  Mg  Mg33  1  0.67486000  0.82514000  0.23289500  1
  Mg  Mg34  1  0.87486000  0.12514000  0.28289500  1
  Mg  Mg35  1  0.67486000  0.32514000  0.23289500  1
  Mg  Mg36  1  0.87486000  0.62514000  0.28289500  1
  Mg  Mg37  1  0.17486000  0.32514000  0.23289500  1
  Mg  Mg38  1  0.15086600  0.52063100  0.21763800  1
  Mg  Mg39  1  0.86294500  0.77151800  0.23704200  1
  Mg  Mg40  1  0.56278200  0.47425300  0.23849100  1
  Mg  Mg41  1  0.78693900  0.17602600  0.22729900  1
  Mg  Mg42  1  0.48677600  0.87876200  0.22874800  1
  Mg  Mg43  1  0.32123800  0.31322400  0.27874800  1
  Mg  Mg44  1  0.67936900  0.64913400  0.26763800  1
  Mg  Mg45  1  0.19885400  0.12964800  0.24815200  1
  Mg  Mg46  1  0.02397400  0.01306100  0.27729900  1
  Mg  Mg47  1  0.72574700  0.23721800  0.28849100  1
  Mg  Mg48  1  0.42848200  0.93705500  0.28704200  1
  Mg  Mg49  1  0.67035200  0.00114600  0.19815200  1
  Mg  Mg50  1  0.53330700  0.30204000  0.28134300  1
  Mg  Mg51  1  0.20158500  0.46910900  0.28073900  1
  Mg  Mg52  1  0.49796000  0.66669300  0.23134300  1
  Mg  Mg53  1  0.03451500  0.80083200  0.28013500  1
  Mg  Mg54  1  0.33089100  0.99841500  0.23073900  1
  Mg  Mg55  1  0.01882900  0.65186400  0.23505000  1
  Mg  Mg56  1  0.71520500  0.44944800  0.28565400  1
  Mg  Mg57  1  0.99916800  0.16548500  0.23013500  1
  Mg  Mg58  1  0.25176000  0.58358700  0.33444600  1
  Mg  Mg59  1  0.94813600  0.38117100  0.38505000  1
  Mg  Mg60  1  0.75055200  0.08479500  0.33565400  1
  Mg  Mg61  1  0.61641300  0.54824000  0.38444600  1
  Mg  Mg62  1  0.94743500  0.71923200  0.34270500  1
  Mg  Mg63  1  0.08076800  0.25256500  0.29270500  1
  Mg  Mg64  1  0.20228600  0.13104700  0.32308400  1
  Mg  Mg65  1  0.06895300  0.59771400  0.37308400  1
  Mg  Mg66  1  0.77486000  0.72514000  0.38289500  1
  Mg  Mg67  1  0.07486000  0.42514000  0.33289500  1
  Mg  Mg68  1  0.27486000  0.72514000  0.38289500  1
  Mg  Mg69  1  0.07486000  0.92514000  0.33289500  1
  Mg  Mg70  1  0.27486000  0.22514000  0.38289500  1
  Mg  Mg71  1  0.57486000  0.92514000  0.33289500  1
  Mg  Mg72  1  0.55086600  0.12063100  0.31763800  1
  Mg  Mg73  1  0.26294500  0.37151800  0.33704200  1
  Mg  Mg74  1  0.96278200  0.07425300  0.33849100  1
  Mg  Mg75  1  0.18693900  0.77602600  0.32729900  1
  Mg  Mg76  1  0.88677600  0.47876200  0.32874800  1
  Mg  Mg77  1  0.72123800  0.91322400  0.37874800  1
  Mg  Mg78  1  0.07936900  0.24913400  0.36763800  1
  Mg  Mg79  1  0.59885400  0.72964800  0.34815200  1
  Mg  Mg80  1  0.42397400  0.61306100  0.37729900  1
  Mg  Mg81  1  0.12574700  0.83721800  0.38849100  1
  Mg  Mg82  1  0.82848200  0.53705500  0.38704200  1
  Mg  Mg83  1  0.07035200  0.60114600  0.29815200  1
  Mg  Mg84  1  0.93330700  0.90204000  0.38134300  1
  Mg  Mg85  1  0.60158500  0.06910900  0.38073900  1
  Mg  Mg86  1  0.89796000  0.26669300  0.33134300  1
  Mg  Mg87  1  0.43451500  0.40083200  0.38013500  1
  Mg  Mg88  1  0.73089100  0.59841500  0.33073900  1
  Mg  Mg89  1  0.41882900  0.25186400  0.33505000  1
  Mg  Mg90  1  0.11520500  0.04944800  0.38565400  1
  Mg  Mg91  1  0.39916800  0.76548500  0.33013500  1
  Mg  Mg92  1  0.65176000  0.18358700  0.43444600  1
  Mg  Mg93  1  0.34813600  0.98117100  0.48505000  1
  Mg  Mg94  1  0.15055200  0.68479500  0.43565400  1
  Mg  Mg95  1  0.01641300  0.14824000  0.48444600  1
  Mg  Mg96  1  0.34743500  0.31923200  0.44270500  1
  Mg  Mg97  1  0.48076800  0.85256500  0.39270500  1
  Mg  Mg98  1  0.60228600  0.73104700  0.42308400  1
  Mg  Mg99  1  0.46895300  0.19771400  0.47308400  1
  Mg  Mg100  1  0.17486000  0.32514000  0.48289500  1
  Mg  Mg101  1  0.47486000  0.02514000  0.43289500  1
  Mg  Mg102  1  0.67486000  0.32514000  0.48289500  1
  Mg  Mg103  1  0.47486000  0.52514000  0.43289500  1
  Mg  Mg104  1  0.67486000  0.82514000  0.48289500  1
  Mg  Mg105  1  0.97486000  0.52514000  0.43289500  1
  Mg  Mg106  1  0.95086600  0.72063100  0.41763800  1
  Mg  Mg107  1  0.66294500  0.97151800  0.43704200  1
  Mg  Mg108  1  0.36278200  0.67425300  0.43849100  1
  Mg  Mg109  1  0.58693900  0.37602600  0.42729900  1
  Mg  Mg110  1  0.28677600  0.07876200  0.42874800  1
  Mg  Mg111  1  0.12123800  0.51322400  0.47874800  1
  Mg  Mg112  1  0.47936900  0.84913400  0.46763800  1
  Mg  Mg113  1  0.99885400  0.32964800  0.44815200  1
  Mg  Mg114  1  0.82397400  0.21306100  0.47729900  1
  Mg  Mg115  1  0.52574700  0.43721800  0.48849100  1
  Mg  Mg116  1  0.22848200  0.13705500  0.48704200  1
  Mg  Mg117  1  0.47035200  0.20114600  0.39815200  1
  Mg  Mg118  1  0.33330700  0.50204000  0.48134300  1
  Mg  Mg119  1  0.00158500  0.66910900  0.48073900  1
  Mg  Mg120  1  0.29796000  0.86669300  0.43134300  1
  Mg  Mg121  1  0.83451500  0.00083200  0.48013500  1
  Mg  Mg122  1  0.13089100  0.19841500  0.43073900  1
  Mg  Mg123  1  0.81882900  0.85186400  0.43505000  1
  Mg  Mg124  1  0.51520500  0.64944800  0.48565400  1
  Mg  Mg125  1  0.79916800  0.36548500  0.43013500  1
  Mg  Mg126  1  0.05176000  0.78358700  0.53444600  1
  Mg  Mg127  1  0.74813600  0.58117100  0.58505000  1
  Mg  Mg128  1  0.55055200  0.28479500  0.53565400  1
  Mg  Mg129  1  0.41641300  0.74824000  0.58444600  1
  Mg  Mg130  1  0.74743500  0.91923200  0.54270500  1
  Mg  Mg131  1  0.88076800  0.45256500  0.49270500  1
  Mg  Mg132  1  0.00228600  0.33104700  0.52308400  1
  Mg  Mg133  1  0.86895300  0.79771400  0.57308400  1
  Mg  Mg134  1  0.57486000  0.92514000  0.58289500  1
  Mg  Mg135  1  0.87486000  0.62514000  0.53289500  1
  Mg  Mg136  1  0.07486000  0.92514000  0.58289500  1
  Mg  Mg137  1  0.87486000  0.12514000  0.53289500  1
  Mg  Mg138  1  0.07486000  0.42514000  0.58289500  1
  Mg  Mg139  1  0.37486000  0.12514000  0.53289500  1
  Mg  Mg140  1  0.35086600  0.32063100  0.51763800  1
  Mg  Mg141  1  0.06294500  0.57151800  0.53704200  1
  Mg  Mg142  1  0.76278200  0.27425300  0.53849100  1
  Mg  Mg143  1  0.98693900  0.97602600  0.52729900  1
  Mg  Mg144  1  0.68677600  0.67876200  0.52874800  1
  Mg  Mg145  1  0.52123800  0.11322400  0.57874800  1
  Mg  Mg146  1  0.87936900  0.44913400  0.56763800  1
  Mg  Mg147  1  0.39885400  0.92964800  0.54815200  1
  Mg  Mg148  1  0.22397400  0.81306100  0.57729900  1
  Mg  Mg149  1  0.92574700  0.03721800  0.58849100  1
  Mg  Mg150  1  0.62848200  0.73705500  0.58704200  1
  Mg  Mg151  1  0.87035200  0.80114600  0.49815200  1
  Mg  Mg152  1  0.73330700  0.10204000  0.58134300  1
  Mg  Mg153  1  0.40158500  0.26910900  0.58073900  1
  Mg  Mg154  1  0.69796000  0.46669300  0.53134300  1
  Mg  Mg155  1  0.23451500  0.60083200  0.58013500  1
  Mg  Mg156  1  0.53089100  0.79841500  0.53073900  1
  Mg  Mg157  1  0.21882900  0.45186400  0.53505000  1
  Mg  Mg158  1  0.91520500  0.24944800  0.58565400  1
  Mg  Mg159  1  0.19916800  0.96548500  0.53013500  1
  Mg  Mg160  1  0.45176000  0.38358700  0.63444600  1
  Mg  Mg161  1  0.14813600  0.18117100  0.68505000  1
  Mg  Mg162  1  0.95055200  0.88479500  0.63565400  1
  Mg  Mg163  1  0.81641300  0.34824000  0.68444600  1
  Mg  Mg164  1  0.14743500  0.51923200  0.64270500  1
  Mg  Mg165  1  0.28076800  0.05256500  0.59270500  1
  Mg  Mg166  1  0.40228600  0.93104700  0.62308400  1
  Mg  Mg167  1  0.26895300  0.39771400  0.67308400  1
  Mg  Mg168  1  0.97486000  0.52514000  0.68289500  1
  Mg  Mg169  1  0.27486000  0.22514000  0.63289500  1
  Mg  Mg170  1  0.47486000  0.52514000  0.68289500  1
  Mg  Mg171  1  0.27486000  0.72514000  0.63289500  1
  Mg  Mg172  1  0.47486000  0.02514000  0.68289500  1
  Mg  Mg173  1  0.77486000  0.72514000  0.63289500  1
  Mg  Mg174  1  0.75086600  0.92063100  0.61763800  1
  Mg  Mg175  1  0.46294500  0.17151800  0.63704200  1
  Mg  Mg176  1  0.16278200  0.87425300  0.63849100  1
  Mg  Mg177  1  0.38693900  0.57602600  0.62729900  1
  Mg  Mg178  1  0.08677600  0.27876200  0.62874800  1
  Mg  Mg179  1  0.92123800  0.71322400  0.67874800  1
  Mg  Mg180  1  0.27936900  0.04913400  0.66763800  1
  Mg  Mg181  1  0.79885400  0.52964800  0.64815200  1
  Mg  Mg182  1  0.62397400  0.41306100  0.67729900  1
  Mg  Mg183  1  0.32574700  0.63721800  0.68849100  1
  Mg  Mg184  1  0.02848200  0.33705500  0.68704200  1
  Mg  Mg185  1  0.27035200  0.40114600  0.59815200  1
  Mg  Mg186  1  0.13330700  0.70204000  0.68134300  1
  Mg  Mg187  1  0.80158500  0.86910900  0.68073900  1
  Mg  Mg188  1  0.09796000  0.06669300  0.63134300  1
  Mg  Mg189  1  0.63451500  0.20083200  0.68013500  1
  Mg  Mg190  1  0.93089100  0.39841500  0.63073900  1
  Mg  Mg191  1  0.61882900  0.05186400  0.63505000  1
  Mg  Mg192  1  0.31520500  0.84944800  0.68565400  1
  Mg  Mg193  1  0.59916800  0.56548500  0.63013500  1
  Mg  Mg194  1  0.85176000  0.98358700  0.73444600  1
  Mg  Mg195  1  0.35055200  0.48479500  0.73565400  1
  Mg  Mg196  1  0.54743500  0.11923200  0.74270500  1
  Mg  Mg197  1  0.68076800  0.65256500  0.69270500  1
  Mg  Mg198  1  0.80228600  0.53104700  0.72308400  1
  Mg  Mg199  1  0.66895300  0.99771400  0.77308400  1
  Mg  Mg200  1  0.67486000  0.82514000  0.73289500  1
  Mg  Mg201  1  0.67486000  0.32514000  0.73289500  1
  Mg  Mg202  1  0.17486000  0.32514000  0.73289500  1
  Mg  Mg203  1  0.15086600  0.52063100  0.71763800  1
  Mg  Mg204  1  0.86294500  0.77151800  0.73704200  1
  Mg  Mg205  1  0.56278200  0.47425300  0.73849100  1
  Mg  Mg206  1  0.78693900  0.17602600  0.72729900  1
  Mg  Mg207  1  0.48677600  0.87876200  0.72874800  1
  Mg  Mg208  1  0.67936900  0.64913400  0.76763800  1
  Mg  Mg209  1  0.19885400  0.12964800  0.74815200  1
  Mg  Mg210  1  0.67035200  0.00114600  0.69815200  1
  Mg  Mg211  1  0.49796000  0.66669300  0.73134300  1
  Mg  Mg212  1  0.33089100  0.99841500  0.73073900  1
  Mg  Mg213  1  0.01882900  0.65186400  0.73505000  1
  Mg  Mg214  1  0.99916800  0.16548500  0.73013500  1
