# generated using pymatgen
data_Mg373Ir84
_symmetry_space_group_name_H-M   'P 1'
_cell_length_a   18.30800199
_cell_length_b   18.30800171
_cell_length_c   46.43980600
_cell_angle_alpha   90.32248290
_cell_angle_beta   89.67751711
_cell_angle_gamma   78.71339112
_symmetry_Int_Tables_number   1
_chemical_formula_structural   Mg373Ir84
_chemical_formula_sum   'Mg373 Ir84'
_cell_volume   15264.19257997
_cell_formula_units_Z   1
loop_
 _symmetry_equiv_pos_site_id
 _symmetry_equiv_pos_as_xyz
  1  'x, y, z'
loop_
 _atom_site_type_symbol
 _atom_site_label
 _atom_site_symmetry_multiplicity
 _atom_site_fract_x
 _atom_site_fract_y
 _atom_site_fract_z
 _atom_site_occupancy
  Mg  Mg0  1  0.80581400  0.02751900  0.25585900  1
  Mg  Mg1  1  0.01414800  0.65251900  0.27669300  1
  Mg  Mg2  1  0.30581400  0.52751900  0.25585900  1
  Mg  Mg3  1  0.68081400  0.15251900  0.19335900  1
  Mg  Mg4  1  0.88914800  0.77751900  0.21419300  1
  Mg  Mg5  1  0.18081400  0.65251900  0.19335900  1
  Mg  Mg6  1  0.75938800  0.87315400  0.24970800  1
  Mg  Mg7  1  0.88537700  0.78129000  0.27857800  1
  Mg  Mg8  1  0.71017900  0.99061200  0.20804200  1
  Mg  Mg9  1  0.26890800  0.43188300  0.30367700  1
  Mg  Mg10  1  0.14291900  0.52374800  0.27480700  1
  Mg  Mg11  1  0.06811700  0.56442500  0.22034400  1
  Mg  Mg12  1  0.03498100  0.96501900  0.20377600  1
  Mg  Mg13  1  0.15998100  0.84001900  0.26627600  1
  Mg  Mg14  1  0.05770200  0.76747400  0.23087800  1
  Mg  Mg15  1  0.07373000  0.40294400  0.30240500  1
  Mg  Mg16  1  0.22001700  0.47813300  0.20129800  1
  Mg  Mg17  1  0.27419600  0.36098700  0.24412900  1
  Mg  Mg18  1  0.18271900  0.67394000  0.26190300  1
  Mg  Mg19  1  0.90152200  0.60663500  0.23204300  1
  Mg  Mg20  1  0.72059400  0.78756400  0.19750700  1
  Mg  Mg21  1  0.95456500  0.90209400  0.25098000  1
  Mg  Mg22  1  0.55827900  0.07690500  0.22708800  1
  Mg  Mg23  1  0.75409900  0.94405100  0.30925600  1
  Mg  Mg24  1  0.84557700  0.63109800  0.29148200  1
  Mg  Mg25  1  0.87677300  0.94840300  0.19634200  1
  Mg  Mg26  1  0.22248100  0.27751900  0.29752600  1
  Mg  Mg27  1  0.18081400  0.15251900  0.19335900  1
  Mg  Mg28  1  0.72248100  0.77751900  0.29752600  1
  Mg  Mg29  1  0.09748100  0.40251900  0.23502600  1
  Mg  Mg30  1  0.30581400  0.02751900  0.25585900  1
  Mg  Mg31  1  0.59748100  0.90251900  0.23502600  1
  Mg  Mg32  1  0.17605400  0.12315400  0.29137500  1
  Mg  Mg33  1  0.05204400  0.28129000  0.19524500  1
  Mg  Mg34  1  0.12684600  0.24061200  0.24970800  1
  Mg  Mg35  1  0.43557500  0.93188300  0.22034400  1
  Mg  Mg36  1  0.30958500  0.02374800  0.19147400  1
  Mg  Mg37  1  0.48478300  0.81442500  0.26201000  1
  Mg  Mg38  1  0.45164800  0.21501900  0.24544300  1
  Mg  Mg39  1  0.57664800  0.09001900  0.30794300  1
  Mg  Mg40  1  0.47436900  0.01747400  0.27254500  1
  Mg  Mg41  1  0.24039700  0.90294400  0.21907200  1
  Mg  Mg42  1  0.63668300  0.72813300  0.24296400  1
  Mg  Mg43  1  0.69086300  0.61098700  0.28579600  1
  Mg  Mg44  1  0.59938600  0.92394000  0.30357000  1
  Mg  Mg45  1  0.31818900  0.85663500  0.27371000  1
  Mg  Mg46  1  0.13726000  0.03756400  0.23917400  1
  Mg  Mg47  1  0.37123200  0.15209400  0.29264700  1
  Mg  Mg48  1  0.97494600  0.32690500  0.26875500  1
  Mg  Mg49  1  0.92076600  0.44405100  0.22592300  1
  Mg  Mg50  1  0.01224300  0.13109800  0.20814900  1
  Mg  Mg51  1  0.29344000  0.19840300  0.23800900  1
  Mg  Mg52  1  0.38914800  0.77751900  0.21419300  1
  Mg  Mg53  1  0.59748100  0.40251900  0.23502600  1
  Mg  Mg54  1  0.88914800  0.27751900  0.21419300  1
  Mg  Mg55  1  0.51414800  0.65251900  0.27669300  1
  Mg  Mg56  1  0.72248100  0.27751900  0.29752600  1
  Mg  Mg57  1  0.01414800  0.15251900  0.27669300  1
  Mg  Mg58  1  0.34272100  0.62315400  0.20804200  1
  Mg  Mg59  1  0.46871000  0.53129000  0.23691200  1
  Mg  Mg60  1  0.54351200  0.49061200  0.29137500  1
  Mg  Mg61  1  0.85224100  0.18188300  0.26201000  1
  Mg  Mg62  1  0.72625200  0.27374800  0.23314100  1
  Mg  Mg63  1  0.90145000  0.06442500  0.30367700  1
  Mg  Mg64  1  0.86831400  0.46501900  0.28710900  1
  Mg  Mg65  1  0.74331400  0.59001900  0.22460900  1
  Mg  Mg66  1  0.64103500  0.51747400  0.18921100  1
  Mg  Mg67  1  0.65706400  0.15294400  0.26073900  1
  Mg  Mg68  1  0.05335000  0.97813300  0.28463100  1
  Mg  Mg69  1  0.85753000  0.11098700  0.20246200  1
  Mg  Mg70  1  0.76605200  0.42394000  0.22023700  1
  Mg  Mg71  1  0.48485600  0.35663500  0.19037600  1
  Mg  Mg72  1  0.55392700  0.28756400  0.28084100  1
  Mg  Mg73  1  0.53789900  0.65209400  0.20931400  1
  Mg  Mg74  1  0.39161200  0.57690500  0.31042100  1
  Mg  Mg75  1  0.33743200  0.69405100  0.26759000  1
  Mg  Mg76  1  0.42891000  0.38109800  0.24981500  1
  Mg  Mg77  1  0.71010700  0.44840300  0.27967600  1
  Mg  Mg78  1  0.05581400  0.77751900  0.38085900  1
  Mg  Mg79  1  0.26414800  0.40251900  0.40169300  1
  Mg  Mg80  1  0.55581400  0.27751900  0.38085900  1
  Mg  Mg81  1  0.93081400  0.90251900  0.31835900  1
  Mg  Mg82  1  0.13914800  0.52751900  0.33919300  1
  Mg  Mg83  1  0.43081400  0.40251900  0.31835900  1
  Mg  Mg84  1  0.00938800  0.62315400  0.37470800  1
  Mg  Mg85  1  0.13537700  0.53129000  0.40357800  1
  Mg  Mg86  1  0.96017900  0.74061200  0.33304200  1
  Mg  Mg87  1  0.51890800  0.18188300  0.42867700  1
  Mg  Mg88  1  0.39291900  0.27374800  0.39980700  1
  Mg  Mg89  1  0.31811700  0.31442500  0.34534400  1
  Mg  Mg90  1  0.28498100  0.71501900  0.32877600  1
  Mg  Mg91  1  0.40998100  0.59001900  0.39127600  1
  Mg  Mg92  1  0.30770200  0.51747400  0.35587800  1
  Mg  Mg93  1  0.32373000  0.15294400  0.42740500  1
  Mg  Mg94  1  0.47001700  0.22813300  0.32629800  1
  Mg  Mg95  1  0.52419600  0.11098700  0.36912900  1
  Mg  Mg96  1  0.43271900  0.42394000  0.38690300  1
  Mg  Mg97  1  0.15152200  0.35663500  0.35704300  1
  Mg  Mg98  1  0.97059400  0.53756400  0.32250700  1
  Mg  Mg99  1  0.20456500  0.65209400  0.37598000  1
  Mg  Mg100  1  0.80827900  0.82690500  0.35208800  1
  Mg  Mg101  1  0.00409900  0.69405100  0.43425600  1
  Mg  Mg102  1  0.09557700  0.38109800  0.41648200  1
  Mg  Mg103  1  0.12677300  0.69840300  0.32134200  1
  Mg  Mg104  1  0.47248100  0.02751900  0.42252600  1
  Mg  Mg105  1  0.43081400  0.90251900  0.31835900  1
  Mg  Mg106  1  0.97248100  0.52751900  0.42252600  1
  Mg  Mg107  1  0.34748100  0.15251900  0.36002600  1
  Mg  Mg108  1  0.55581400  0.77751900  0.38085900  1
  Mg  Mg109  1  0.84748100  0.65251900  0.36002600  1
  Mg  Mg110  1  0.42605400  0.87315400  0.41637500  1
  Mg  Mg111  1  0.30204400  0.03129000  0.32024500  1
  Mg  Mg112  1  0.37684600  0.99061200  0.37470800  1
  Mg  Mg113  1  0.68557500  0.68188300  0.34534400  1
  Mg  Mg114  1  0.55958500  0.77374800  0.31647400  1
  Mg  Mg115  1  0.73478300  0.56442500  0.38701000  1
  Mg  Mg116  1  0.70164800  0.96501900  0.37044300  1
  Mg  Mg117  1  0.82664800  0.84001900  0.43294300  1
  Mg  Mg118  1  0.72436900  0.76747400  0.39754500  1
  Mg  Mg119  1  0.49039700  0.65294400  0.34407200  1
  Mg  Mg120  1  0.88668300  0.47813300  0.36796400  1
  Mg  Mg121  1  0.94086300  0.36098700  0.41079600  1
  Mg  Mg122  1  0.84938600  0.67394000  0.42857000  1
  Mg  Mg123  1  0.56818900  0.60663500  0.39871000  1
  Mg  Mg124  1  0.38726000  0.78756400  0.36417400  1
  Mg  Mg125  1  0.62123200  0.90209400  0.41764700  1
  Mg  Mg126  1  0.22494600  0.07690500  0.39375500  1
  Mg  Mg127  1  0.17076600  0.19405100  0.35092300  1
  Mg  Mg128  1  0.26224300  0.88109800  0.33314900  1
  Mg  Mg129  1  0.54344000  0.94840300  0.36300900  1
  Mg  Mg130  1  0.63914800  0.52751900  0.33919300  1
  Mg  Mg131  1  0.84748100  0.15251900  0.36002600  1
  Mg  Mg132  1  0.13914800  0.02751900  0.33919300  1
  Mg  Mg133  1  0.76414800  0.40251900  0.40169300  1
  Mg  Mg134  1  0.97248100  0.02751900  0.42252600  1
  Mg  Mg135  1  0.26414800  0.90251900  0.40169300  1
  Mg  Mg136  1  0.59272100  0.37315400  0.33304200  1
  Mg  Mg137  1  0.71871000  0.28129000  0.36191200  1
  Mg  Mg138  1  0.79351200  0.24061200  0.41637500  1
  Mg  Mg139  1  0.10224100  0.93188300  0.38701000  1
  Mg  Mg140  1  0.97625200  0.02374800  0.35814100  1
  Mg  Mg141  1  0.15145000  0.81442500  0.42867700  1
  Mg  Mg142  1  0.11831400  0.21501900  0.41210900  1
  Mg  Mg143  1  0.99331400  0.34001900  0.34960900  1
  Mg  Mg144  1  0.89103500  0.26747400  0.31421100  1
  Mg  Mg145  1  0.90706400  0.90294400  0.38573900  1
  Mg  Mg146  1  0.30335000  0.72813300  0.40963100  1
  Mg  Mg147  1  0.10753000  0.86098700  0.32746200  1
  Mg  Mg148  1  0.01605200  0.17394000  0.34523700  1
  Mg  Mg149  1  0.73485600  0.10663500  0.31537600  1
  Mg  Mg150  1  0.80392700  0.03756400  0.40584100  1
  Mg  Mg151  1  0.78789900  0.40209400  0.33431400  1
  Mg  Mg152  1  0.64161200  0.32690500  0.43542100  1
  Mg  Mg153  1  0.58743200  0.44405100  0.39259000  1
  Mg  Mg154  1  0.67891000  0.13109800  0.37481500  1
  Mg  Mg155  1  0.96010700  0.19840300  0.40467600  1
  Mg  Mg156  1  0.30581400  0.52751900  0.50585900  1
  Mg  Mg157  1  0.51414800  0.15251900  0.52669300  1
  Mg  Mg158  1  0.80581400  0.02751900  0.50585900  1
  Mg  Mg159  1  0.18081400  0.65251900  0.44335900  1
  Mg  Mg160  1  0.38914800  0.27751900  0.46419300  1
  Mg  Mg161  1  0.68081400  0.15251900  0.44335900  1
  Mg  Mg162  1  0.25938800  0.37315400  0.49970800  1
  Mg  Mg163  1  0.38537700  0.28129000  0.52857800  1
  Mg  Mg164  1  0.21017900  0.49061200  0.45804200  1
  Mg  Mg165  1  0.76890800  0.93188300  0.55367700  1
  Mg  Mg166  1  0.64291900  0.02374800  0.52480700  1
  Mg  Mg167  1  0.56811700  0.06442500  0.47034400  1
  Mg  Mg168  1  0.53498100  0.46501900  0.45377600  1
  Mg  Mg169  1  0.65998100  0.34001900  0.51627600  1
  Mg  Mg170  1  0.55770200  0.26747400  0.48087800  1
  Mg  Mg171  1  0.57373000  0.90294400  0.55240500  1
  Mg  Mg172  1  0.72001700  0.97813300  0.45129800  1
  Mg  Mg173  1  0.77419600  0.86098700  0.49412900  1
  Mg  Mg174  1  0.68271900  0.17394000  0.51190300  1
  Mg  Mg175  1  0.40152200  0.10663500  0.48204300  1
  Mg  Mg176  1  0.22059400  0.28756400  0.44750700  1
  Mg  Mg177  1  0.45456500  0.40209400  0.50098000  1
  Mg  Mg178  1  0.05827900  0.57690500  0.47708800  1
  Mg  Mg179  1  0.25409900  0.44405100  0.55925600  1
  Mg  Mg180  1  0.34557700  0.13109800  0.54148200  1
  Mg  Mg181  1  0.37677300  0.44840300  0.44634200  1
  Mg  Mg182  1  0.72248100  0.77751900  0.54752600  1
  Mg  Mg183  1  0.68081400  0.65251900  0.44335900  1
  Mg  Mg184  1  0.22248100  0.27751900  0.54752600  1
  Mg  Mg185  1  0.59748100  0.90251900  0.48502600  1
  Mg  Mg186  1  0.80581400  0.52751900  0.50585900  1
  Mg  Mg187  1  0.09748100  0.40251900  0.48502600  1
  Mg  Mg188  1  0.67605400  0.62315400  0.54137500  1
  Mg  Mg189  1  0.55204400  0.78129000  0.44524500  1
  Mg  Mg190  1  0.62684600  0.74061200  0.49970800  1
  Mg  Mg191  1  0.93557500  0.43188300  0.47034400  1
  Mg  Mg192  1  0.80958500  0.52374800  0.44147400  1
  Mg  Mg193  1  0.98478300  0.31442500  0.51201000  1
  Mg  Mg194  1  0.95164800  0.71501900  0.49544300  1
  Mg  Mg195  1  0.07664800  0.59001900  0.55794300  1
  Mg  Mg196  1  0.97436900  0.51747400  0.52254500  1
  Mg  Mg197  1  0.74039700  0.40294400  0.46907200  1
  Mg  Mg198  1  0.13668300  0.22813300  0.49296400  1
  Mg  Mg199  1  0.19086300  0.11098700  0.53579600  1
  Mg  Mg200  1  0.09938600  0.42394000  0.55357000  1
  Mg  Mg201  1  0.81818900  0.35663500  0.52371000  1
  Mg  Mg202  1  0.63726000  0.53756400  0.48917400  1
  Mg  Mg203  1  0.87123200  0.65209400  0.54264700  1
  Mg  Mg204  1  0.47494600  0.82690500  0.51875500  1
  Mg  Mg205  1  0.42076600  0.94405100  0.47592300  1
  Mg  Mg206  1  0.51224300  0.63109800  0.45814900  1
  Mg  Mg207  1  0.79344000  0.69840300  0.48800900  1
  Mg  Mg208  1  0.88914800  0.27751900  0.46419300  1
  Mg  Mg209  1  0.09748100  0.90251900  0.48502600  1
  Mg  Mg210  1  0.38914800  0.77751900  0.46419300  1
  Mg  Mg211  1  0.01414800  0.15251900  0.52669300  1
  Mg  Mg212  1  0.22248100  0.77751900  0.54752600  1
  Mg  Mg213  1  0.51414800  0.65251900  0.52669300  1
  Mg  Mg214  1  0.84272100  0.12315400  0.45804200  1
  Mg  Mg215  1  0.96871000  0.03129000  0.48691200  1
  Mg  Mg216  1  0.04351200  0.99061200  0.54137500  1
  Mg  Mg217  1  0.35224100  0.68188300  0.51201000  1
  Mg  Mg218  1  0.22625200  0.77374800  0.48314100  1
  Mg  Mg219  1  0.40145000  0.56442500  0.55367700  1
  Mg  Mg220  1  0.36831400  0.96501900  0.53710900  1
  Mg  Mg221  1  0.24331400  0.09001900  0.47460900  1
  Mg  Mg222  1  0.14103500  0.01747400  0.43921100  1
  Mg  Mg223  1  0.15706400  0.65294400  0.51073900  1
  Mg  Mg224  1  0.55335000  0.47813300  0.53463100  1
  Mg  Mg225  1  0.35753000  0.61098700  0.45246200  1
  Mg  Mg226  1  0.26605200  0.92394000  0.47023700  1
  Mg  Mg227  1  0.98485600  0.85663500  0.44037600  1
  Mg  Mg228  1  0.05392700  0.78756400  0.53084100  1
  Mg  Mg229  1  0.03789900  0.15209400  0.45931400  1
  Mg  Mg230  1  0.89161200  0.07690500  0.56042100  1
  Mg  Mg231  1  0.83743200  0.19405100  0.51759000  1
  Mg  Mg232  1  0.92891000  0.88109800  0.49981500  1
  Mg  Mg233  1  0.21010700  0.94840300  0.52967600  1
  Mg  Mg234  1  0.55581400  0.27751900  0.63085900  1
  Mg  Mg235  1  0.76414800  0.90251900  0.65169300  1
  Mg  Mg236  1  0.05581400  0.77751900  0.63085900  1
  Mg  Mg237  1  0.43081400  0.40251900  0.56835900  1
  Mg  Mg238  1  0.63914800  0.02751900  0.58919300  1
  Mg  Mg239  1  0.93081400  0.90251900  0.56835900  1
  Mg  Mg240  1  0.50938800  0.12315400  0.62470800  1
  Mg  Mg241  1  0.63537700  0.03129000  0.65357800  1
  Mg  Mg242  1  0.46017900  0.24061200  0.58304200  1
  Mg  Mg243  1  0.01890800  0.68188300  0.67867700  1
  Mg  Mg244  1  0.89291900  0.77374800  0.64980700  1
  Mg  Mg245  1  0.81811700  0.81442500  0.59534400  1
  Mg  Mg246  1  0.78498100  0.21501900  0.57877600  1
  Mg  Mg247  1  0.90998100  0.09001900  0.64127600  1
  Mg  Mg248  1  0.80770200  0.01747400  0.60587800  1
  Mg  Mg249  1  0.82373000  0.65294400  0.67740500  1
  Mg  Mg250  1  0.97001700  0.72813300  0.57629800  1
  Mg  Mg251  1  0.02419600  0.61098700  0.61912900  1
  Mg  Mg252  1  0.93271900  0.92394000  0.63690300  1
  Mg  Mg253  1  0.65152200  0.85663500  0.60704300  1
  Mg  Mg254  1  0.47059400  0.03756400  0.57250700  1
  Mg  Mg255  1  0.70456500  0.15209400  0.62598000  1
  Mg  Mg256  1  0.30827900  0.32690500  0.60208800  1
  Mg  Mg257  1  0.50409900  0.19405100  0.68425600  1
  Mg  Mg258  1  0.59557700  0.88109800  0.66648200  1
  Mg  Mg259  1  0.62677300  0.19840300  0.57134200  1
  Mg  Mg260  1  0.97248100  0.52751900  0.67252600  1
  Mg  Mg261  1  0.93081400  0.40251900  0.56835900  1
  Mg  Mg262  1  0.47248100  0.02751900  0.67252600  1
  Mg  Mg263  1  0.84748100  0.65251900  0.61002600  1
  Mg  Mg264  1  0.05581400  0.27751900  0.63085900  1
  Mg  Mg265  1  0.34748100  0.15251900  0.61002600  1
  Mg  Mg266  1  0.92605400  0.37315400  0.66637500  1
  Mg  Mg267  1  0.80204400  0.53129000  0.57024500  1
  Mg  Mg268  1  0.87684600  0.49061200  0.62470800  1
  Mg  Mg269  1  0.18557500  0.18188300  0.59534400  1
  Mg  Mg270  1  0.05958500  0.27374800  0.56647400  1
  Mg  Mg271  1  0.23478300  0.06442500  0.63701000  1
  Mg  Mg272  1  0.20164800  0.46501900  0.62044300  1
  Mg  Mg273  1  0.32664800  0.34001900  0.68294300  1
  Mg  Mg274  1  0.22436900  0.26747400  0.64754500  1
  Mg  Mg275  1  0.99039700  0.15294400  0.59407200  1
  Mg  Mg276  1  0.38668300  0.97813300  0.61796400  1
  Mg  Mg277  1  0.44086300  0.86098700  0.66079600  1
  Mg  Mg278  1  0.34938600  0.17394000  0.67857000  1
  Mg  Mg279  1  0.06818900  0.10663500  0.64871000  1
  Mg  Mg280  1  0.88726000  0.28756400  0.61417400  1
  Mg  Mg281  1  0.12123200  0.40209400  0.66764700  1
  Mg  Mg282  1  0.72494600  0.57690500  0.64375500  1
  Mg  Mg283  1  0.67076600  0.69405100  0.60092300  1
  Mg  Mg284  1  0.76224300  0.38109800  0.58314900  1
  Mg  Mg285  1  0.04344000  0.44840300  0.61300900  1
  Mg  Mg286  1  0.13914800  0.02751900  0.58919300  1
  Mg  Mg287  1  0.34748100  0.65251900  0.61002600  1
  Mg  Mg288  1  0.63914800  0.52751900  0.58919300  1
  Mg  Mg289  1  0.26414800  0.90251900  0.65169300  1
  Mg  Mg290  1  0.47248100  0.52751900  0.67252600  1
  Mg  Mg291  1  0.76414800  0.40251900  0.65169300  1
  Mg  Mg292  1  0.09272100  0.87315400  0.58304200  1
  Mg  Mg293  1  0.21871000  0.78129000  0.61191200  1
  Mg  Mg294  1  0.29351200  0.74061200  0.66637500  1
  Mg  Mg295  1  0.60224100  0.43188300  0.63701000  1
  Mg  Mg296  1  0.47625200  0.52374800  0.60814100  1
  Mg  Mg297  1  0.65145000  0.31442500  0.67867700  1
  Mg  Mg298  1  0.61831400  0.71501900  0.66210900  1
  Mg  Mg299  1  0.49331400  0.84001900  0.59960900  1
  Mg  Mg300  1  0.39103500  0.76747400  0.56421100  1
  Mg  Mg301  1  0.40706400  0.40294400  0.63573900  1
  Mg  Mg302  1  0.80335000  0.22813300  0.65963100  1
  Mg  Mg303  1  0.60753000  0.36098700  0.57746200  1
  Mg  Mg304  1  0.51605200  0.67394000  0.59523700  1
  Mg  Mg305  1  0.23485600  0.60663500  0.56537600  1
  Mg  Mg306  1  0.30392700  0.53756400  0.65584100  1
  Mg  Mg307  1  0.28789900  0.90209400  0.58431400  1
  Mg  Mg308  1  0.14161200  0.82690500  0.68542100  1
  Mg  Mg309  1  0.08743200  0.94405100  0.64259000  1
  Mg  Mg310  1  0.17891000  0.63109800  0.62481500  1
  Mg  Mg311  1  0.46010700  0.69840300  0.65467600  1
  Mg  Mg312  1  0.80581400  0.02751900  0.75585900  1
  Mg  Mg313  1  0.01414800  0.65251900  0.77669300  1
  Mg  Mg314  1  0.30581400  0.52751900  0.75585900  1
  Mg  Mg315  1  0.68081400  0.15251900  0.69335900  1
  Mg  Mg316  1  0.88914800  0.77751900  0.71419300  1
  Mg  Mg317  1  0.18081400  0.65251900  0.69335900  1
  Mg  Mg318  1  0.75938800  0.87315400  0.74970800  1
  Mg  Mg319  1  0.88537700  0.78129000  0.77857800  1
  Mg  Mg320  1  0.71017900  0.99061200  0.70804200  1
  Mg  Mg321  1  0.14291900  0.52374800  0.77480700  1
  Mg  Mg322  1  0.06811700  0.56442500  0.72034400  1
  Mg  Mg323  1  0.03498100  0.96501900  0.70377600  1
  Mg  Mg324  1  0.15998100  0.84001900  0.76627600  1
  Mg  Mg325  1  0.05770200  0.76747400  0.73087800  1
  Mg  Mg326  1  0.22001700  0.47813300  0.70129800  1
  Mg  Mg327  1  0.27419600  0.36098700  0.74412900  1
  Mg  Mg328  1  0.18271900  0.67394000  0.76190300  1
  Mg  Mg329  1  0.90152200  0.60663500  0.73204300  1
  Mg  Mg330  1  0.72059400  0.78756400  0.69750700  1
  Mg  Mg331  1  0.95456500  0.90209400  0.75098000  1
  Mg  Mg332  1  0.55827900  0.07690500  0.72708800  1
  Mg  Mg333  1  0.87677300  0.94840300  0.69634200  1
  Mg  Mg334  1  0.18081400  0.15251900  0.69335900  1
  Mg  Mg335  1  0.09748100  0.40251900  0.73502600  1
  Mg  Mg336  1  0.30581400  0.02751900  0.75585900  1
  Mg  Mg337  1  0.59748100  0.90251900  0.73502600  1
  Mg  Mg338  1  0.05204400  0.28129000  0.69524500  1
  Mg  Mg339  1  0.12684600  0.24061200  0.74970800  1
  Mg  Mg340  1  0.43557500  0.93188300  0.72034400  1
  Mg  Mg341  1  0.30958500  0.02374800  0.69147400  1
  Mg  Mg342  1  0.48478300  0.81442500  0.76201000  1
  Mg  Mg343  1  0.45164800  0.21501900  0.74544300  1
  Mg  Mg344  1  0.47436900  0.01747400  0.77254500  1
  Mg  Mg345  1  0.24039700  0.90294400  0.71907200  1
  Mg  Mg346  1  0.63668300  0.72813300  0.74296400  1
  Mg  Mg347  1  0.31818900  0.85663500  0.77371000  1
  Mg  Mg348  1  0.13726000  0.03756400  0.73917400  1
  Mg  Mg349  1  0.97494600  0.32690500  0.76875500  1
  Mg  Mg350  1  0.92076600  0.44405100  0.72592300  1
  Mg  Mg351  1  0.01224300  0.13109800  0.70814900  1
  Mg  Mg352  1  0.29344000  0.19840300  0.73800900  1
  Mg  Mg353  1  0.38914800  0.77751900  0.71419300  1
  Mg  Mg354  1  0.59748100  0.40251900  0.73502600  1
  Mg  Mg355  1  0.88914800  0.27751900  0.71419300  1
  Mg  Mg356  1  0.51414800  0.65251900  0.77669300  1
  Mg  Mg357  1  0.01414800  0.15251900  0.77669300  1
  Mg  Mg358  1  0.34272100  0.62315400  0.70804200  1
  Mg  Mg359  1  0.46871000  0.53129000  0.73691200  1
  Mg  Mg360  1  0.85224100  0.18188300  0.76201000  1
  Mg  Mg361  1  0.72625200  0.27374800  0.73314100  1
  Mg  Mg362  1  0.74331400  0.59001900  0.72460900  1
  Mg  Mg363  1  0.64103500  0.51747400  0.68921100  1
  Mg  Mg364  1  0.65706400  0.15294400  0.76073900  1
  Mg  Mg365  1  0.85753000  0.11098700  0.70246200  1
  Mg  Mg366  1  0.76605200  0.42394000  0.72023700  1
  Mg  Mg367  1  0.48485600  0.35663500  0.69037600  1
  Mg  Mg368  1  0.55392700  0.28756400  0.78084100  1
  Mg  Mg369  1  0.53789900  0.65209400  0.70931400  1
  Mg  Mg370  1  0.33743200  0.69405100  0.76759000  1
  Mg  Mg371  1  0.42891000  0.38109800  0.74981500  1
  Mg  Mg372  1  0.71010700  0.44840300  0.77967600  1
  Ir  Ir373  1  0.78647700  0.71950700  0.24619100  1
  Ir  Ir374  1  0.66297300  0.00369400  0.26478000  1
  Ir  Ir375  1  0.03049300  0.79685600  0.28785700  1
  Ir  Ir376  1  0.24181800  0.58553100  0.30719500  1
  Ir  Ir377  1  0.36532200  0.30134400  0.28860500  1
  Ir  Ir378  1  0.99780200  0.50818200  0.26552800  1
  Ir  Ir379  1  0.20314400  0.96950700  0.28785700  1
  Ir  Ir380  1  0.07964000  0.25369400  0.30644700  1
  Ir  Ir381  1  0.19716000  0.29685600  0.20452400  1
  Ir  Ir382  1  0.40848500  0.08553100  0.22386100  1
  Ir  Ir383  1  0.53198900  0.80134400  0.20527200  1
  Ir  Ir384  1  0.41446900  0.75818200  0.30719500  1
  Ir  Ir385  1  0.36981000  0.46950700  0.20452400  1
  Ir  Ir386  1  0.24630600  0.75369400  0.22311300  1
  Ir  Ir387  1  0.61382600  0.54685600  0.24619100  1
  Ir  Ir388  1  0.82515200  0.33553100  0.26552800  1
  Ir  Ir389  1  0.94865600  0.05134400  0.24693900  1
  Ir  Ir390  1  0.58113600  0.25818200  0.22386100  1
  Ir  Ir391  1  0.03647700  0.46950700  0.37119100  1
  Ir  Ir392  1  0.91297300  0.75369400  0.38978000  1
  Ir  Ir393  1  0.28049300  0.54685600  0.41285700  1
  Ir  Ir394  1  0.49181800  0.33553100  0.43219500  1
  Ir  Ir395  1  0.61532200  0.05134400  0.41360500  1
  Ir  Ir396  1  0.24780200  0.25818200  0.39052800  1
  Ir  Ir397  1  0.45314400  0.71950700  0.41285700  1
  Ir  Ir398  1  0.32964000  0.00369400  0.43144700  1
  Ir  Ir399  1  0.44716000  0.04685600  0.32952400  1
  Ir  Ir400  1  0.65848500  0.83553100  0.34886100  1
  Ir  Ir401  1  0.78198900  0.55134400  0.33027200  1
  Ir  Ir402  1  0.66446900  0.50818200  0.43219500  1
  Ir  Ir403  1  0.61981000  0.21950700  0.32952400  1
  Ir  Ir404  1  0.49630600  0.50369400  0.34811300  1
  Ir  Ir405  1  0.86382600  0.29685600  0.37119100  1
  Ir  Ir406  1  0.07515200  0.08553100  0.39052800  1
  Ir  Ir407  1  0.19865600  0.80134400  0.37193900  1
  Ir  Ir408  1  0.83113600  0.00818200  0.34886100  1
  Ir  Ir409  1  0.28647700  0.21950700  0.49619100  1
  Ir  Ir410  1  0.16297300  0.50369400  0.51478000  1
  Ir  Ir411  1  0.53049300  0.29685600  0.53785700  1
  Ir  Ir412  1  0.74181800  0.08553100  0.55719500  1
  Ir  Ir413  1  0.86532200  0.80134400  0.53860500  1
  Ir  Ir414  1  0.49780200  0.00818200  0.51552800  1
  Ir  Ir415  1  0.70314400  0.46950700  0.53785700  1
  Ir  Ir416  1  0.57964000  0.75369400  0.55644700  1
  Ir  Ir417  1  0.69716000  0.79685600  0.45452400  1
  Ir  Ir418  1  0.90848500  0.58553100  0.47386100  1
  Ir  Ir419  1  0.03198900  0.30134400  0.45527200  1
  Ir  Ir420  1  0.91446900  0.25818200  0.55719500  1
  Ir  Ir421  1  0.86981000  0.96950700  0.45452400  1
  Ir  Ir422  1  0.74630600  0.25369400  0.47311300  1
  Ir  Ir423  1  0.11382600  0.04685600  0.49619100  1
  Ir  Ir424  1  0.32515200  0.83553100  0.51552800  1
  Ir  Ir425  1  0.44865600  0.55134400  0.49693900  1
  Ir  Ir426  1  0.08113600  0.75818200  0.47386100  1
  Ir  Ir427  1  0.53647700  0.96950700  0.62119100  1
  Ir  Ir428  1  0.41297300  0.25369400  0.63978000  1
  Ir  Ir429  1  0.78049300  0.04685600  0.66285700  1
  Ir  Ir430  1  0.99181800  0.83553100  0.68219500  1
  Ir  Ir431  1  0.11532200  0.55134400  0.66360500  1
  Ir  Ir432  1  0.74780200  0.75818200  0.64052800  1
  Ir  Ir433  1  0.95314400  0.21950700  0.66285700  1
  Ir  Ir434  1  0.82964000  0.50369400  0.68144700  1
  Ir  Ir435  1  0.94716000  0.54685600  0.57952400  1
  Ir  Ir436  1  0.15848500  0.33553100  0.59886100  1
  Ir  Ir437  1  0.28198900  0.05134400  0.58027200  1
  Ir  Ir438  1  0.16446900  0.00818200  0.68219500  1
  Ir  Ir439  1  0.11981000  0.71950700  0.57952400  1
  Ir  Ir440  1  0.99630600  0.00369400  0.59811300  1
  Ir  Ir441  1  0.36382600  0.79685600  0.62119100  1
  Ir  Ir442  1  0.57515200  0.58553100  0.64052800  1
  Ir  Ir443  1  0.69865600  0.30134400  0.62193900  1
  Ir  Ir444  1  0.33113600  0.50818200  0.59886100  1
  Ir  Ir445  1  0.78647700  0.71950700  0.74619100  1
  Ir  Ir446  1  0.66297300  0.00369400  0.76478000  1
  Ir  Ir447  1  0.99780200  0.50818200  0.76552800  1
  Ir  Ir448  1  0.19716000  0.29685600  0.70452400  1
  Ir  Ir449  1  0.40848500  0.08553100  0.72386100  1
  Ir  Ir450  1  0.53198900  0.80134400  0.70527200  1
  Ir  Ir451  1  0.36981000  0.46950700  0.70452400  1
  Ir  Ir452  1  0.24630600  0.75369400  0.72311300  1
  Ir  Ir453  1  0.61382600  0.54685600  0.74619100  1
  Ir  Ir454  1  0.82515200  0.33553100  0.76552800  1
  Ir  Ir455  1  0.94865600  0.05134400  0.74693900  1
  Ir  Ir456  1  0.58113600  0.25818200  0.72386100  1
