# generated using pymatgen
data_Sr2Mg
_symmetry_space_group_name_H-M   'P 1'
_cell_length_a   4.12481600
_cell_length_b   8.04169787
_cell_length_c   43.88687600
_cell_angle_alpha   94.42883965
_cell_angle_beta   90.00000000
_cell_angle_gamma   104.86036609
_symmetry_Int_Tables_number   1
_chemical_formula_structural   Sr2Mg
_chemical_formula_sum   'Sr14 Mg7'
_cell_volume   1402.56347801
_cell_formula_units_Z   7
loop_
 _symmetry_equiv_pos_site_id
 _symmetry_equiv_pos_as_xyz
  1  'x, y, z'
loop_
 _atom_site_type_symbol
 _atom_site_label
 _atom_site_symmetry_multiplicity
 _atom_site_fract_x
 _atom_site_fract_y
 _atom_site_fract_z
 _atom_site_occupancy
  Sr  Sr0  1  0.62909400  0.25818700  0.80527200  1
  Sr  Sr1  1  0.27999700  0.55999500  0.74018200  1
  Sr  Sr2  1  0.53818500  0.07636900  0.71436300  1
  Sr  Sr3  1  0.18908800  0.37817600  0.64927300  1
  Sr  Sr4  1  0.44727500  0.89455100  0.62345400  1
  Sr  Sr5  1  0.09817900  0.19635800  0.55836400  1
  Sr  Sr6  1  0.35636600  0.71273300  0.53254500  1
  Sr  Sr7  1  0.00727000  0.01454000  0.46745500  1
  Sr  Sr8  1  0.26545700  0.53091500  0.44163600  1
  Sr  Sr9  1  0.91636100  0.83272200  0.37654600  1
  Sr  Sr10  1  0.17454800  0.34909600  0.35072700  1
  Sr  Sr11  1  0.82545200  0.65090400  0.28563700  1
  Sr  Sr12  1  0.08363900  0.16727800  0.25981800  1
  Sr  Sr13  1  0.73454300  0.46908500  0.19472800  1
  Mg  Mg14  1  0.95454500  0.90909100  0.77272700  1
  Mg  Mg15  1  0.86363600  0.72727300  0.68181800  1
  Mg  Mg16  1  0.77272700  0.54545500  0.59090900  1
  Mg  Mg17  1  0.68181800  0.36363600  0.50000000  1
  Mg  Mg18  1  0.59090900  0.18181800  0.40909100  1
  Mg  Mg19  1  0.50000000  0.00000000  0.31818200  1
  Mg  Mg20  1  0.40909100  0.81818200  0.22727300  1
