# generated using pymatgen
data_Mg17Pd32
_symmetry_space_group_name_H-M   'P 1'
_cell_length_a   6.94548378
_cell_length_b   9.19052455
_cell_length_c   43.38640000
_cell_angle_alpha   90.95958529
_cell_angle_beta   93.38110513
_cell_angle_gamma   74.03149322
_symmetry_Int_Tables_number   1
_chemical_formula_structural   Mg17Pd32
_chemical_formula_sum   'Mg34 Pd64'
_cell_volume   2657.96799762
_cell_formula_units_Z   2
loop_
 _symmetry_equiv_pos_site_id
 _symmetry_equiv_pos_as_xyz
  1  'x, y, z'
loop_
 _atom_site_type_symbol
 _atom_site_label
 _atom_site_symmetry_multiplicity
 _atom_site_fract_x
 _atom_site_fract_y
 _atom_site_fract_z
 _atom_site_occupancy
  Mg  Mg0  1  0.92410700  0.27947500  0.24311900  1
  Mg  Mg1  1  0.76993800  0.56754700  0.19735700  1
  Mg  Mg2  1  0.65366500  0.09080200  0.18573000  1
  Mg  Mg3  1  0.32609400  0.89907800  0.18331800  1
  Mg  Mg4  1  0.63839300  0.13661800  0.31454800  1
  Mg  Mg5  1  0.48422300  0.42469000  0.26878600  1
  Mg  Mg6  1  0.36795100  0.94794400  0.25715800  1
  Mg  Mg7  1  0.04038000  0.75622100  0.25474600  1
  Mg  Mg8  1  0.35267800  0.99376100  0.38597600  1
  Mg  Mg9  1  0.19850900  0.28183300  0.34021400  1
  Mg  Mg10  1  0.08223600  0.80508700  0.32858700  1
  Mg  Mg11  1  0.75466500  0.61336400  0.32617500  1
  Mg  Mg12  1  0.06696400  0.85090400  0.45740500  1
  Mg  Mg13  1  0.91279500  0.13897600  0.41164300  1
  Mg  Mg14  1  0.79652200  0.66223000  0.40001500  1
  Mg  Mg15  1  0.46895100  0.47050600  0.39760400  1
  Mg  Mg16  1  0.78125000  0.70804700  0.52883300  1
  Mg  Mg17  1  0.62708000  0.99611800  0.48307100  1
  Mg  Mg18  1  0.51080800  0.51937300  0.47144400  1
  Mg  Mg19  1  0.18323700  0.32764900  0.46903200  1
  Mg  Mg20  1  0.49553600  0.56519000  0.60026200  1
  Mg  Mg21  1  0.34136600  0.85326100  0.55450000  1
  Mg  Mg22  1  0.22509300  0.37651600  0.54287300  1
  Mg  Mg23  1  0.89752300  0.18479200  0.54046100  1
  Mg  Mg24  1  0.20982100  0.42233200  0.67169100  1
  Mg  Mg25  1  0.05565200  0.71040400  0.62592800  1
  Mg  Mg26  1  0.93937900  0.23365900  0.61430100  1
  Mg  Mg27  1  0.61180800  0.04193500  0.61188900  1
  Mg  Mg28  1  0.92410700  0.27947500  0.74311900  1
  Mg  Mg29  1  0.76993800  0.56754700  0.69735700  1
  Mg  Mg30  1  0.65366500  0.09080200  0.68573000  1
  Mg  Mg31  1  0.32609400  0.89907800  0.68331800  1
  Mg  Mg32  1  0.36795100  0.94794400  0.75715800  1
  Mg  Mg33  1  0.04038000  0.75622100  0.75474600  1
  Pd  Pd34  1  0.01120200  0.99877200  0.21891800  1
  Pd  Pd35  1  0.68284300  0.84825000  0.22155800  1
  Pd  Pd36  1  0.55269900  0.37427900  0.20854400  1
  Pd  Pd37  1  0.14134500  0.47274300  0.23193200  1
  Pd  Pd38  1  0.04253600  0.72311800  0.18837800  1
  Pd  Pd39  1  0.65150800  0.12390400  0.25209800  1
  Pd  Pd40  1  0.39161400  0.67588300  0.22610900  1
  Pd  Pd41  1  0.30243000  0.17113900  0.21436800  1
  Pd  Pd42  1  0.72548700  0.85591500  0.29034700  1
  Pd  Pd43  1  0.39712900  0.70539300  0.29298700  1
  Pd  Pd44  1  0.26698500  0.23142200  0.27997200  1
  Pd  Pd45  1  0.85563100  0.32988600  0.30336100  1
  Pd  Pd46  1  0.75682200  0.58026100  0.25980700  1
  Pd  Pd47  1  0.36579400  0.98104700  0.32352700  1
  Pd  Pd48  1  0.10590000  0.53302600  0.29753700  1
  Pd  Pd49  1  0.01671600  0.02828200  0.28579600  1
  Pd  Pd50  1  0.43977300  0.71305800  0.36177500  1
  Pd  Pd51  1  0.11141400  0.56253600  0.36441500  1
  Pd  Pd52  1  0.98127100  0.08856500  0.35140100  1
  Pd  Pd53  1  0.56991700  0.18702900  0.37479000  1
  Pd  Pd54  1  0.47110800  0.43740400  0.33123500  1
  Pd  Pd55  1  0.08008000  0.83819000  0.39495500  1
  Pd  Pd56  1  0.82018600  0.39016900  0.36896600  1
  Pd  Pd57  1  0.73100200  0.88542500  0.35722500  1
  Pd  Pd58  1  0.15405900  0.57020100  0.43320400  1
  Pd  Pd59  1  0.82570000  0.41967900  0.43584400  1
  Pd  Pd60  1  0.69555700  0.94570700  0.42282900  1
  Pd  Pd61  1  0.28420200  0.04417200  0.44621800  1
  Pd  Pd62  1  0.18539300  0.29454600  0.40266400  1
  Pd  Pd63  1  0.79436600  0.69533300  0.46638400  1
  Pd  Pd64  1  0.53447200  0.24731200  0.44039400  1
  Pd  Pd65  1  0.44528700  0.74256800  0.42865300  1
  Pd  Pd66  1  0.86834400  0.42734400  0.50463200  1
  Pd  Pd67  1  0.53998600  0.27682200  0.50727200  1
  Pd  Pd68  1  0.40984200  0.80285000  0.49425800  1
  Pd  Pd69  1  0.99848800  0.90131500  0.51764700  1
  Pd  Pd70  1  0.89967900  0.15168900  0.47409200  1
  Pd  Pd71  1  0.50865100  0.55247600  0.53781200  1
  Pd  Pd72  1  0.24875700  0.10445500  0.51182300  1
  Pd  Pd73  1  0.15957300  0.59971100  0.50008200  1
  Pd  Pd74  1  0.58263000  0.28448600  0.57606100  1
  Pd  Pd75  1  0.25427200  0.13396400  0.57870100  1
  Pd  Pd76  1  0.12412800  0.65999300  0.56568700  1
  Pd  Pd77  1  0.71277400  0.75845800  0.58907500  1
  Pd  Pd78  1  0.61396500  0.00883200  0.54552100  1
  Pd  Pd79  1  0.22293700  0.40961900  0.60924100  1
  Pd  Pd80  1  0.96304300  0.96159700  0.58325100  1
  Pd  Pd81  1  0.87385900  0.45685300  0.57151000  1
  Pd  Pd82  1  0.29691600  0.14162900  0.64749000  1
  Pd  Pd83  1  0.96855700  0.99110700  0.65012900  1
  Pd  Pd84  1  0.83841400  0.51713600  0.63711500  1
  Pd  Pd85  1  0.42705900  0.61560100  0.66050400  1
  Pd  Pd86  1  0.32825100  0.86597500  0.61695000  1
  Pd  Pd87  1  0.93722300  0.26676200  0.68066900  1
  Pd  Pd88  1  0.67732900  0.81874000  0.65468000  1
  Pd  Pd89  1  0.58814400  0.31399600  0.64293900  1
  Pd  Pd90  1  0.01120200  0.99877200  0.71891800  1
  Pd  Pd91  1  0.68284300  0.84825000  0.72155800  1
  Pd  Pd92  1  0.55269900  0.37427900  0.70854400  1
  Pd  Pd93  1  0.14134500  0.47274300  0.73193200  1
  Pd  Pd94  1  0.04253600  0.72311800  0.68837800  1
  Pd  Pd95  1  0.65150800  0.12390400  0.75209800  1
  Pd  Pd96  1  0.39161400  0.67588300  0.72610900  1
  Pd  Pd97  1  0.30243000  0.17113900  0.71436800  1
