# generated using pymatgen
data_Er2Mg
_symmetry_space_group_name_H-M   'P 1'
_cell_length_a   6.54038785
_cell_length_b   17.02029400
_cell_length_c   42.47288400
_cell_angle_alpha   90.00000000
_cell_angle_beta   93.19447861
_cell_angle_gamma   90.00000000
_symmetry_Int_Tables_number   1
_chemical_formula_structural   Er2Mg
_chemical_formula_sum   'Er72 Mg36'
_cell_volume   4720.70600450
_cell_formula_units_Z   36
loop_
 _symmetry_equiv_pos_site_id
 _symmetry_equiv_pos_as_xyz
  1  'x, y, z'
loop_
 _atom_site_type_symbol
 _atom_site_label
 _atom_site_symmetry_multiplicity
 _atom_site_fract_x
 _atom_site_fract_y
 _atom_site_fract_z
 _atom_site_occupancy
  Er  Er0  1  0.67857100  0.90585200  0.19642900  1
  Er  Er1  1  0.53571400  0.72693300  0.23214300  1
  Er  Er2  1  0.17857100  0.59414800  0.19642900  1
  Er  Er3  1  0.03571400  0.77306700  0.23214300  1
  Er  Er4  1  0.53571400  0.40585200  0.23214300  1
  Er  Er5  1  0.67857100  0.22693300  0.19642900  1
  Er  Er6  1  0.03571400  0.09414800  0.23214300  1
  Er  Er7  1  0.17857100  0.27306700  0.19642900  1
  Er  Er8  1  0.39285700  0.90585200  0.26785700  1
  Er  Er9  1  0.25000000  0.72693300  0.30357100  1
  Er  Er10  1  0.89285700  0.59414800  0.26785700  1
  Er  Er11  1  0.75000000  0.77306700  0.30357100  1
  Er  Er12  1  0.25000000  0.40585200  0.30357100  1
  Er  Er13  1  0.39285700  0.22693300  0.26785700  1
  Er  Er14  1  0.75000000  0.09414800  0.30357100  1
  Er  Er15  1  0.89285700  0.27306700  0.26785700  1
  Er  Er16  1  0.10714300  0.90585200  0.33928600  1
  Er  Er17  1  0.96428600  0.72693300  0.37500000  1
  Er  Er18  1  0.60714300  0.59414800  0.33928600  1
  Er  Er19  1  0.46428600  0.77306700  0.37500000  1
  Er  Er20  1  0.96428600  0.40585200  0.37500000  1
  Er  Er21  1  0.10714300  0.22693300  0.33928600  1
  Er  Er22  1  0.46428600  0.09414800  0.37500000  1
  Er  Er23  1  0.60714300  0.27306700  0.33928600  1
  Er  Er24  1  0.82142900  0.90585200  0.41071400  1
  Er  Er25  1  0.67857100  0.72693300  0.44642900  1
  Er  Er26  1  0.32142900  0.59414800  0.41071400  1
  Er  Er27  1  0.17857100  0.77306700  0.44642900  1
  Er  Er28  1  0.67857100  0.40585200  0.44642900  1
  Er  Er29  1  0.82142900  0.22693300  0.41071400  1
  Er  Er30  1  0.17857100  0.09414800  0.44642900  1
  Er  Er31  1  0.32142900  0.27306700  0.41071400  1
  Er  Er32  1  0.53571400  0.90585200  0.48214300  1
  Er  Er33  1  0.39285700  0.72693300  0.51785700  1
  Er  Er34  1  0.03571400  0.59414800  0.48214300  1
  Er  Er35  1  0.89285700  0.77306700  0.51785700  1
  Er  Er36  1  0.39285700  0.40585200  0.51785700  1
  Er  Er37  1  0.53571400  0.22693300  0.48214300  1
  Er  Er38  1  0.89285700  0.09414800  0.51785700  1
  Er  Er39  1  0.03571400  0.27306700  0.48214300  1
  Er  Er40  1  0.25000000  0.90585200  0.55357100  1
  Er  Er41  1  0.10714300  0.72693300  0.58928600  1
  Er  Er42  1  0.75000000  0.59414800  0.55357100  1
  Er  Er43  1  0.60714300  0.77306700  0.58928600  1
  Er  Er44  1  0.10714300  0.40585200  0.58928600  1
  Er  Er45  1  0.25000000  0.22693300  0.55357100  1
  Er  Er46  1  0.60714300  0.09414800  0.58928600  1
  Er  Er47  1  0.75000000  0.27306700  0.55357100  1
  Er  Er48  1  0.96428600  0.90585200  0.62500000  1
  Er  Er49  1  0.82142900  0.72693300  0.66071400  1
  Er  Er50  1  0.46428600  0.59414800  0.62500000  1
  Er  Er51  1  0.32142900  0.77306700  0.66071400  1
  Er  Er52  1  0.82142900  0.40585200  0.66071400  1
  Er  Er53  1  0.96428600  0.22693300  0.62500000  1
  Er  Er54  1  0.32142900  0.09414800  0.66071400  1
  Er  Er55  1  0.46428600  0.27306700  0.62500000  1
  Er  Er56  1  0.67857100  0.90585200  0.69642900  1
  Er  Er57  1  0.53571400  0.72693300  0.73214300  1
  Er  Er58  1  0.17857100  0.59414800  0.69642900  1
  Er  Er59  1  0.03571400  0.77306700  0.73214300  1
  Er  Er60  1  0.53571400  0.40585200  0.73214300  1
  Er  Er61  1  0.67857100  0.22693300  0.69642900  1
  Er  Er62  1  0.03571400  0.09414800  0.73214300  1
  Er  Er63  1  0.17857100  0.27306700  0.69642900  1
  Er  Er64  1  0.39285700  0.90585200  0.76785700  1
  Er  Er65  1  0.25000000  0.72693300  0.80357100  1
  Er  Er66  1  0.89285700  0.59414800  0.76785700  1
  Er  Er67  1  0.75000000  0.77306700  0.80357100  1
  Er  Er68  1  0.25000000  0.40585200  0.80357100  1
  Er  Er69  1  0.39285700  0.22693300  0.76785700  1
  Er  Er70  1  0.75000000  0.09414800  0.80357100  1
  Er  Er71  1  0.89285700  0.27306700  0.76785700  1
  Mg  Mg72  1  0.67857100  0.56552300  0.19642900  1
  Mg  Mg73  1  0.17857100  0.93447700  0.19642900  1
  Mg  Mg74  1  0.53571400  0.06552300  0.23214300  1
  Mg  Mg75  1  0.03571400  0.43447700  0.23214300  1
  Mg  Mg76  1  0.39285700  0.56552300  0.26785700  1
  Mg  Mg77  1  0.89285700  0.93447700  0.26785700  1
  Mg  Mg78  1  0.25000000  0.06552300  0.30357100  1
  Mg  Mg79  1  0.75000000  0.43447700  0.30357100  1
  Mg  Mg80  1  0.10714300  0.56552300  0.33928600  1
  Mg  Mg81  1  0.60714300  0.93447700  0.33928600  1
  Mg  Mg82  1  0.96428600  0.06552300  0.37500000  1
  Mg  Mg83  1  0.46428600  0.43447700  0.37500000  1
  Mg  Mg84  1  0.82142900  0.56552300  0.41071400  1
  Mg  Mg85  1  0.32142900  0.93447700  0.41071400  1
  Mg  Mg86  1  0.67857100  0.06552300  0.44642900  1
  Mg  Mg87  1  0.17857100  0.43447700  0.44642900  1
  Mg  Mg88  1  0.53571400  0.56552300  0.48214300  1
  Mg  Mg89  1  0.03571400  0.93447700  0.48214300  1
  Mg  Mg90  1  0.39285700  0.06552300  0.51785700  1
  Mg  Mg91  1  0.89285700  0.43447700  0.51785700  1
  Mg  Mg92  1  0.25000000  0.56552300  0.55357100  1
  Mg  Mg93  1  0.75000000  0.93447700  0.55357100  1
  Mg  Mg94  1  0.10714300  0.06552300  0.58928600  1
  Mg  Mg95  1  0.60714300  0.43447700  0.58928600  1
  Mg  Mg96  1  0.96428600  0.56552300  0.62500000  1
  Mg  Mg97  1  0.46428600  0.93447700  0.62500000  1
  Mg  Mg98  1  0.82142900  0.06552300  0.66071400  1
  Mg  Mg99  1  0.32142900  0.43447700  0.66071400  1
  Mg  Mg100  1  0.67857100  0.56552300  0.69642900  1
  Mg  Mg101  1  0.17857100  0.93447700  0.69642900  1
  Mg  Mg102  1  0.53571400  0.06552300  0.73214300  1
  Mg  Mg103  1  0.03571400  0.43447700  0.73214300  1
  Mg  Mg104  1  0.39285700  0.56552300  0.76785700  1
  Mg  Mg105  1  0.89285700  0.93447700  0.76785700  1
  Mg  Mg106  1  0.25000000  0.06552300  0.80357100  1
  Mg  Mg107  1  0.75000000  0.43447700  0.80357100  1
