# generated using pymatgen
data_Li11Mg23
_symmetry_space_group_name_H-M   'P 1'
_cell_length_a   3.05132800
_cell_length_b   17.58176747
_cell_length_c   48.62272600
_cell_angle_alpha   93.50325111
_cell_angle_beta   90.00000000
_cell_angle_gamma   90.00000000
_symmetry_Int_Tables_number   1
_chemical_formula_structural   Li11Mg23
_chemical_formula_sum   'Li22 Mg46'
_cell_volume   2603.62491512
_cell_formula_units_Z   2
loop_
 _symmetry_equiv_pos_site_id
 _symmetry_equiv_pos_as_xyz
  1  'x, y, z'
loop_
 _atom_site_type_symbol
 _atom_site_label
 _atom_site_symmetry_multiplicity
 _atom_site_fract_x
 _atom_site_fract_y
 _atom_site_fract_z
 _atom_site_occupancy
  Li  Li0  1  0.50000000  0.95565500  0.26973300  1
  Li  Li1  1  0.00000000  0.66085800  0.24693300  1
  Li  Li2  1  0.00000000  0.40565500  0.21973300  1
  Li  Li3  1  0.50000000  0.21085800  0.29693300  1
  Li  Li4  1  0.50000000  0.05565500  0.36973300  1
  Li  Li5  1  0.00000000  0.76085800  0.34693300  1
  Li  Li6  1  0.00000000  0.50565500  0.31973300  1
  Li  Li7  1  0.50000000  0.31085800  0.39693300  1
  Li  Li8  1  0.50000000  0.15565500  0.46973300  1
  Li  Li9  1  0.00000000  0.86085800  0.44693300  1
  Li  Li10  1  0.00000000  0.60565500  0.41973300  1
  Li  Li11  1  0.50000000  0.41085800  0.49693300  1
  Li  Li12  1  0.50000000  0.25565500  0.56973300  1
  Li  Li13  1  0.00000000  0.96085800  0.54693300  1
  Li  Li14  1  0.00000000  0.70565500  0.51973300  1
  Li  Li15  1  0.50000000  0.51085800  0.59693300  1
  Li  Li16  1  0.50000000  0.35565500  0.66973300  1
  Li  Li17  1  0.00000000  0.06085800  0.64693300  1
  Li  Li18  1  0.00000000  0.80565500  0.61973300  1
  Li  Li19  1  0.50000000  0.61085800  0.69693300  1
  Li  Li20  1  0.00000000  0.16085800  0.74693300  1
  Li  Li21  1  0.00000000  0.90565500  0.71973300  1
  Mg  Mg22  1  0.00000000  0.80443400  0.28653600  1
  Mg  Mg23  1  0.50000000  0.55427500  0.20322000  1
  Mg  Mg24  1  0.50000000  0.81207900  0.23013100  1
  Mg  Mg25  1  0.00000000  0.96223800  0.21344600  1
  Mg  Mg26  1  0.50000000  0.25443400  0.23653600  1
  Mg  Mg27  1  0.00000000  0.10427500  0.25322000  1
  Mg  Mg28  1  0.00000000  0.36207900  0.28013100  1
  Mg  Mg29  1  0.50000000  0.51223800  0.26344600  1
  Mg  Mg30  1  0.00000000  0.90443400  0.38653600  1
  Mg  Mg31  1  0.50000000  0.65427500  0.30322000  1
  Mg  Mg32  1  0.50000000  0.91207900  0.33013100  1
  Mg  Mg33  1  0.00000000  0.06223800  0.31344600  1
  Mg  Mg34  1  0.50000000  0.35443400  0.33653600  1
  Mg  Mg35  1  0.00000000  0.20427500  0.35322000  1
  Mg  Mg36  1  0.00000000  0.46207900  0.38013100  1
  Mg  Mg37  1  0.50000000  0.61223800  0.36344600  1
  Mg  Mg38  1  0.00000000  0.00443400  0.48653600  1
  Mg  Mg39  1  0.50000000  0.75427500  0.40322000  1
  Mg  Mg40  1  0.50000000  0.01207900  0.43013100  1
  Mg  Mg41  1  0.00000000  0.16223800  0.41344600  1
  Mg  Mg42  1  0.50000000  0.45443400  0.43653600  1
  Mg  Mg43  1  0.00000000  0.30427500  0.45322000  1
  Mg  Mg44  1  0.00000000  0.56207900  0.48013100  1
  Mg  Mg45  1  0.50000000  0.71223800  0.46344600  1
  Mg  Mg46  1  0.00000000  0.10443400  0.58653600  1
  Mg  Mg47  1  0.50000000  0.85427500  0.50322000  1
  Mg  Mg48  1  0.50000000  0.11207900  0.53013100  1
  Mg  Mg49  1  1.00000000  0.26223800  0.51344600  1
  Mg  Mg50  1  0.50000000  0.55443400  0.53653600  1
  Mg  Mg51  1  0.00000000  0.40427500  0.55322000  1
  Mg  Mg52  1  0.00000000  0.66207900  0.58013100  1
  Mg  Mg53  1  0.50000000  0.81223800  0.56344600  1
  Mg  Mg54  1  0.00000000  0.20443400  0.68653600  1
  Mg  Mg55  1  0.50000000  0.95427500  0.60322000  1
  Mg  Mg56  1  0.50000000  0.21207900  0.63013100  1
  Mg  Mg57  1  0.00000000  0.36223800  0.61344600  1
  Mg  Mg58  1  0.50000000  0.65443400  0.63653600  1
  Mg  Mg59  1  0.00000000  0.50427500  0.65322000  1
  Mg  Mg60  1  0.00000000  0.76207900  0.68013100  1
  Mg  Mg61  1  0.50000000  0.91223800  0.66344600  1
  Mg  Mg62  1  0.50000000  0.05427500  0.70322000  1
  Mg  Mg63  1  0.50000000  0.31207900  0.73013100  1
  Mg  Mg64  1  0.00000000  0.46223800  0.71344600  1
  Mg  Mg65  1  0.50000000  0.75443400  0.73653600  1
  Mg  Mg66  1  0.00000000  0.60427500  0.75322000  1
  Mg  Mg67  1  0.50000000  0.01223800  0.76344600  1
