# generated using pymatgen
data_Mg28Zn157
_symmetry_space_group_name_H-M   'P 1'
_cell_length_a   8.56229400
_cell_length_b   12.10891200
_cell_length_c   48.43564800
_cell_angle_alpha   90.00000000
_cell_angle_beta   90.00000000
_cell_angle_gamma   90.00000000
_symmetry_Int_Tables_number   1
_chemical_formula_structural   Mg28Zn157
_chemical_formula_sum   'Mg28 Zn157'
_cell_volume   5021.81111185
_cell_formula_units_Z   1
loop_
 _symmetry_equiv_pos_site_id
 _symmetry_equiv_pos_as_xyz
  1  'x, y, z'
loop_
 _atom_site_type_symbol
 _atom_site_label
 _atom_site_symmetry_multiplicity
 _atom_site_fract_x
 _atom_site_fract_y
 _atom_site_fract_z
 _atom_site_occupancy
  Mg  Mg0  1  0.50000000  0.84331200  0.22820700  1
  Mg  Mg1  1  1.00000000  0.29076100  0.29070700  1
  Mg  Mg2  1  0.00000000  0.09331200  0.24134500  1
  Mg  Mg3  1  0.50000000  0.54076100  0.30384500  1
  Mg  Mg4  1  0.50000000  0.34331200  0.35320700  1
  Mg  Mg5  1  0.00000000  0.79076100  0.41570700  1
  Mg  Mg6  1  0.69744900  0.94203700  0.32852600  1
  Mg  Mg7  1  0.00000000  0.59331200  0.36634500  1
  Mg  Mg8  1  0.30255100  0.94203700  0.32852600  1
  Mg  Mg9  1  0.50000000  0.04076100  0.42884500  1
  Mg  Mg10  1  0.50000000  0.84331200  0.47820700  1
  Mg  Mg11  1  1.00000000  0.29076100  0.54070700  1
  Mg  Mg12  1  0.69744900  0.44203700  0.45352600  1
  Mg  Mg13  1  0.00000000  0.09331200  0.49134500  1
  Mg  Mg14  1  0.30255100  0.44203700  0.45352600  1
  Mg  Mg15  1  0.50000000  0.54076100  0.55384500  1
  Mg  Mg16  1  0.50000000  0.34331200  0.60320700  1
  Mg  Mg17  1  0.00000000  0.79076100  0.66570700  1
  Mg  Mg18  1  0.69744900  0.94203700  0.57852600  1
  Mg  Mg19  1  0.00000000  0.59331200  0.61634500  1
  Mg  Mg20  1  0.30255100  0.94203700  0.57852600  1
  Mg  Mg21  1  0.50000000  0.04076100  0.67884500  1
  Mg  Mg22  1  0.50000000  0.84331200  0.72820700  1
  Mg  Mg23  1  0.00000000  0.29076100  0.79070700  1
  Mg  Mg24  1  0.69744900  0.44203700  0.70352600  1
  Mg  Mg25  1  0.00000000  0.09331200  0.74134500  1
  Mg  Mg26  1  0.30255100  0.44203700  0.70352600  1
  Mg  Mg27  1  0.50000000  0.54076100  0.80384500  1
  Zn  Zn28  1  0.50000000  0.19203700  0.26602600  1
  Zn  Zn29  1  0.00000000  0.80522300  0.23772900  1
  Zn  Zn30  1  0.00000000  0.57885000  0.23772900  1
  Zn  Zn31  1  0.77362700  0.69203700  0.26602600  1
  Zn  Zn32  1  0.00000000  0.80522300  0.29432200  1
  Zn  Zn33  1  0.22637300  0.69203700  0.26602600  1
  Zn  Zn34  1  0.00000000  0.57885000  0.29432200  1
  Zn  Zn35  1  0.00000000  0.02084700  0.30882300  1
  Zn  Zn36  1  0.50000000  0.61322700  0.24632300  1
  Zn  Zn37  1  0.50000000  0.77084700  0.28572800  1
  Zn  Zn38  1  0.00000000  0.36322700  0.22322800  1
  Zn  Zn39  1  0.21905500  0.91109200  0.26602600  1
  Zn  Zn40  1  0.21905500  0.47298100  0.26602600  1
  Zn  Zn41  1  0.78094500  0.47298100  0.26602600  1
  Zn  Zn42  1  0.78094500  0.91109200  0.26602600  1
  Zn  Zn43  1  0.65815800  0.32584100  0.29947700  1
  Zn  Zn44  1  0.76760900  0.11295800  0.28579500  1
  Zn  Zn45  1  0.23239100  0.11295800  0.28579500  1
  Zn  Zn46  1  0.50000000  0.40492000  0.25234400  1
  Zn  Zn47  1  0.76760900  0.27111600  0.24625600  1
  Zn  Zn48  1  0.23239100  0.27111600  0.24625600  1
  Zn  Zn49  1  0.50000000  0.97915300  0.27970700  1
  Zn  Zn50  1  0.34184200  0.05823200  0.23257500  1
  Zn  Zn51  1  0.34184200  0.32584100  0.29947700  1
  Zn  Zn52  1  0.65815800  0.05823200  0.23257500  1
  Zn  Zn53  1  0.50000000  0.69203700  0.39102600  1
  Zn  Zn54  1  0.00000000  0.30522300  0.36272900  1
  Zn  Zn55  1  0.00000000  0.07885000  0.36272900  1
  Zn  Zn56  1  0.77362700  0.19203700  0.39102600  1
  Zn  Zn57  1  0.00000000  0.30522300  0.41932200  1
  Zn  Zn58  1  0.22637300  0.19203700  0.39102600  1
  Zn  Zn59  1  0.00000000  0.07885000  0.41932200  1
  Zn  Zn60  1  0.00000000  0.52084700  0.43382300  1
  Zn  Zn61  1  0.50000000  0.11322700  0.37132300  1
  Zn  Zn62  1  0.84238000  0.44203700  0.32852600  1
  Zn  Zn63  1  0.50000000  0.27084700  0.41072800  1
  Zn  Zn64  1  0.15762000  0.44203700  0.32852600  1
  Zn  Zn65  1  0.00000000  0.86322700  0.34822800  1
  Zn  Zn66  1  0.78094500  0.19203700  0.33626200  1
  Zn  Zn67  1  0.78094500  0.69203700  0.32078900  1
  Zn  Zn68  1  0.21905500  0.41109200  0.39102600  1
  Zn  Zn69  1  0.21905500  0.97298100  0.39102600  1
  Zn  Zn70  1  0.21905500  0.69203700  0.32078900  1
  Zn  Zn71  1  0.21905500  0.19203700  0.33626200  1
  Zn  Zn72  1  0.78094500  0.97298100  0.39102600  1
  Zn  Zn73  1  0.78094500  0.41109200  0.39102600  1
  Zn  Zn74  1  0.65815800  0.82584100  0.42447700  1
  Zn  Zn75  1  0.76760900  0.61295800  0.41079500  1
  Zn  Zn76  1  0.50000000  0.13731100  0.31924600  1
  Zn  Zn77  1  0.50000000  0.74676200  0.33780500  1
  Zn  Zn78  1  0.23239100  0.61295800  0.41079500  1
  Zn  Zn79  1  0.50000000  0.90492000  0.37734400  1
  Zn  Zn80  1  0.76760900  0.77111600  0.37125600  1
  Zn  Zn81  1  0.23239100  0.77111600  0.37125600  1
  Zn  Zn82  1  0.50000000  0.47915300  0.40470700  1
  Zn  Zn83  1  0.34184200  0.55823200  0.35757500  1
  Zn  Zn84  1  0.34184200  0.82584100  0.42447700  1
  Zn  Zn85  1  0.65815800  0.55823200  0.35757500  1
  Zn  Zn86  1  0.50000000  0.19203700  0.51602600  1
  Zn  Zn87  1  0.00000000  0.80522300  0.48772900  1
  Zn  Zn88  1  0.00000000  0.57885000  0.48772900  1
  Zn  Zn89  1  0.77362700  0.69203700  0.51602600  1
  Zn  Zn90  1  0.00000000  0.80522300  0.54432200  1
  Zn  Zn91  1  0.22637300  0.69203700  0.51602600  1
  Zn  Zn92  1  0.00000000  0.57885000  0.54432200  1
  Zn  Zn93  1  1.00000000  0.02084700  0.55882300  1
  Zn  Zn94  1  0.50000000  0.61322700  0.49632300  1
  Zn  Zn95  1  0.84238000  0.94203700  0.45352600  1
  Zn  Zn96  1  0.50000000  0.77084700  0.53572800  1
  Zn  Zn97  1  0.15762000  0.94203700  0.45352600  1
  Zn  Zn98  1  0.00000000  0.36322700  0.47322800  1
  Zn  Zn99  1  0.78094500  0.69203700  0.46126200  1
  Zn  Zn100  1  0.78094500  0.19203700  0.44578900  1
  Zn  Zn101  1  0.21905500  0.91109200  0.51602600  1
  Zn  Zn102  1  0.21905500  0.47298100  0.51602600  1
  Zn  Zn103  1  0.21905500  0.19203700  0.44578900  1
  Zn  Zn104  1  0.21905500  0.69203700  0.46126200  1
  Zn  Zn105  1  0.78094500  0.47298100  0.51602600  1
  Zn  Zn106  1  0.78094500  0.91109200  0.51602600  1
  Zn  Zn107  1  0.65815800  0.32584100  0.54947700  1
  Zn  Zn108  1  0.76760900  0.11295800  0.53579500  1
  Zn  Zn109  1  0.50000000  0.63731100  0.44424600  1
  Zn  Zn110  1  0.50000000  0.24676200  0.46280500  1
  Zn  Zn111  1  0.23239100  0.11295800  0.53579500  1
  Zn  Zn112  1  0.50000000  0.40492000  0.50234400  1
  Zn  Zn113  1  0.76760900  0.27111600  0.49625600  1
  Zn  Zn114  1  0.23239100  0.27111600  0.49625600  1
  Zn  Zn115  1  0.50000000  0.97915300  0.52970700  1
  Zn  Zn116  1  0.34184200  0.05823200  0.48257500  1
  Zn  Zn117  1  0.34184200  0.32584100  0.54947700  1
  Zn  Zn118  1  0.65815800  0.05823200  0.48257500  1
  Zn  Zn119  1  0.50000000  0.69203700  0.64102600  1
  Zn  Zn120  1  0.00000000  0.30522300  0.61272900  1
  Zn  Zn121  1  0.00000000  0.07885000  0.61272900  1
  Zn  Zn122  1  0.77362700  0.19203700  0.64102600  1
  Zn  Zn123  1  0.00000000  0.30522300  0.66932200  1
  Zn  Zn124  1  0.22637300  0.19203700  0.64102600  1
  Zn  Zn125  1  0.00000000  0.07885000  0.66932200  1
  Zn  Zn126  1  0.00000000  0.52084700  0.68382300  1
  Zn  Zn127  1  0.50000000  0.11322700  0.62132300  1
  Zn  Zn128  1  0.84238000  0.44203700  0.57852600  1
  Zn  Zn129  1  0.50000000  0.27084700  0.66072800  1
  Zn  Zn130  1  0.15762000  0.44203700  0.57852600  1
  Zn  Zn131  1  0.00000000  0.86322700  0.59822800  1
  Zn  Zn132  1  0.78094500  0.19203700  0.58626200  1
  Zn  Zn133  1  0.78094500  0.69203700  0.57078900  1
  Zn  Zn134  1  0.21905500  0.41109200  0.64102600  1
  Zn  Zn135  1  0.21905500  0.97298100  0.64102600  1
  Zn  Zn136  1  0.21905500  0.69203700  0.57078900  1
  Zn  Zn137  1  0.21905500  0.19203700  0.58626200  1
  Zn  Zn138  1  0.78094500  0.97298100  0.64102600  1
  Zn  Zn139  1  0.78094500  0.41109200  0.64102600  1
  Zn  Zn140  1  0.65815800  0.82584100  0.67447700  1
  Zn  Zn141  1  0.76760900  0.61295800  0.66079500  1
  Zn  Zn142  1  0.50000000  0.13731100  0.56924600  1
  Zn  Zn143  1  0.50000000  0.74676200  0.58780500  1
  Zn  Zn144  1  0.23239100  0.61295800  0.66079500  1
  Zn  Zn145  1  0.50000000  0.90492000  0.62734400  1
  Zn  Zn146  1  0.76760900  0.77111600  0.62125600  1
  Zn  Zn147  1  0.23239100  0.77111600  0.62125600  1
  Zn  Zn148  1  0.50000000  0.47915300  0.65470700  1
  Zn  Zn149  1  0.34184200  0.55823200  0.60757500  1
  Zn  Zn150  1  0.34184200  0.82584100  0.67447700  1
  Zn  Zn151  1  0.65815800  0.55823200  0.60757500  1
  Zn  Zn152  1  0.50000000  0.19203700  0.76602600  1
  Zn  Zn153  1  0.00000000  0.80522300  0.73772900  1
  Zn  Zn154  1  0.00000000  0.57885000  0.73772900  1
  Zn  Zn155  1  0.77362700  0.69203700  0.76602600  1
  Zn  Zn156  1  0.00000000  0.80522300  0.79432200  1
  Zn  Zn157  1  0.22637300  0.69203700  0.76602600  1
  Zn  Zn158  1  0.00000000  0.57885000  0.79432200  1
  Zn  Zn159  1  0.00000000  0.02084700  0.80882300  1
  Zn  Zn160  1  0.50000000  0.61322700  0.74632300  1
  Zn  Zn161  1  0.84238000  0.94203700  0.70352600  1
  Zn  Zn162  1  0.50000000  0.77084700  0.78572800  1
  Zn  Zn163  1  0.15762000  0.94203700  0.70352600  1
  Zn  Zn164  1  0.00000000  0.36322700  0.72322800  1
  Zn  Zn165  1  0.78094500  0.69203700  0.71126200  1
  Zn  Zn166  1  0.78094500  0.19203700  0.69578900  1
  Zn  Zn167  1  0.21905500  0.91109200  0.76602600  1
  Zn  Zn168  1  0.21905500  0.47298100  0.76602600  1
  Zn  Zn169  1  0.21905500  0.19203700  0.69578900  1
  Zn  Zn170  1  0.21905500  0.69203700  0.71126200  1
  Zn  Zn171  1  0.78094500  0.47298100  0.76602600  1
  Zn  Zn172  1  0.78094500  0.91109200  0.76602600  1
  Zn  Zn173  1  0.65815800  0.32584100  0.79947700  1
  Zn  Zn174  1  0.76760900  0.11295800  0.78579500  1
  Zn  Zn175  1  0.50000000  0.63731100  0.69424600  1
  Zn  Zn176  1  0.50000000  0.24676200  0.71280500  1
  Zn  Zn177  1  0.23239100  0.11295800  0.78579500  1
  Zn  Zn178  1  0.50000000  0.40492000  0.75234400  1
  Zn  Zn179  1  0.76760900  0.27111600  0.74625600  1
  Zn  Zn180  1  0.23239100  0.27111600  0.74625600  1
  Zn  Zn181  1  0.50000000  0.97915300  0.77970700  1
  Zn  Zn182  1  0.34184200  0.05823200  0.73257500  1
  Zn  Zn183  1  0.34184200  0.32584100  0.79947700  1
  Zn  Zn184  1  0.65815800  0.05823200  0.73257500  1
