# generated using pymatgen
data_Mg19Cd10
_symmetry_space_group_name_H-M   'P 1'
_cell_length_a   6.08289758
_cell_length_b   8.21260687
_cell_length_c   42.73648200
_cell_angle_alpha   91.15721162
_cell_angle_beta   91.74581926
_cell_angle_gamma   95.77864034
_symmetry_Int_Tables_number   1
_chemical_formula_structural   Mg19Cd10
_chemical_formula_sum   'Mg38 Cd20'
_cell_volume   2122.54658665
_cell_formula_units_Z   2
loop_
 _symmetry_equiv_pos_site_id
 _symmetry_equiv_pos_as_xyz
  1  'x, y, z'
loop_
 _atom_site_type_symbol
 _atom_site_label
 _atom_site_symmetry_multiplicity
 _atom_site_fract_x
 _atom_site_fract_y
 _atom_site_fract_z
 _atom_site_occupancy
  Mg  Mg0  1  0.13221500  0.10542400  0.21702900  1
  Mg  Mg1  1  0.53511600  0.35290900  0.24130400  1
  Mg  Mg2  1  0.88221500  0.16792400  0.27952900  1
  Mg  Mg3  1  0.96488400  0.80861200  0.25886200  1
  Mg  Mg4  1  0.45244700  0.71222200  0.26197100  1
  Mg  Mg5  1  0.28511600  0.41540900  0.30380400  1
  Mg  Mg6  1  0.63221500  0.23042400  0.34202900  1
  Mg  Mg7  1  0.71488400  0.87111200  0.32136200  1
  Mg  Mg8  1  0.20244700  0.77472200  0.32447100  1
  Mg  Mg9  1  0.03511600  0.47790900  0.36630400  1
  Mg  Mg10  1  0.38221500  0.29292400  0.40452900  1
  Mg  Mg11  1  0.46488400  0.93361200  0.38386200  1
  Mg  Mg12  1  0.95244700  0.83722200  0.38697100  1
  Mg  Mg13  1  0.78511600  0.54040900  0.42880400  1
  Mg  Mg14  1  0.13221500  0.35542400  0.46702900  1
  Mg  Mg15  1  0.21488400  0.99611200  0.44636200  1
  Mg  Mg16  1  0.70244700  0.89972200  0.44947100  1
  Mg  Mg17  1  0.53511600  0.60290900  0.49130400  1
  Mg  Mg18  1  0.88221500  0.41792400  0.52952900  1
  Mg  Mg19  1  0.96488400  0.05861200  0.50886200  1
  Mg  Mg20  1  0.45244700  0.96222200  0.51197100  1
  Mg  Mg21  1  0.28511600  0.66540900  0.55380400  1
  Mg  Mg22  1  0.63221500  0.48042400  0.59202900  1
  Mg  Mg23  1  0.71488400  0.12111200  0.57136200  1
  Mg  Mg24  1  0.20244700  0.02472200  0.57447100  1
  Mg  Mg25  1  0.03511600  0.72790900  0.61630400  1
  Mg  Mg26  1  0.38221500  0.54292400  0.65452900  1
  Mg  Mg27  1  0.46488400  0.18361200  0.63386200  1
  Mg  Mg28  1  0.95244700  0.08722200  0.63697100  1
  Mg  Mg29  1  0.78511600  0.79040900  0.67880400  1
  Mg  Mg30  1  0.13221500  0.60542400  0.71702900  1
  Mg  Mg31  1  0.21488400  0.24611200  0.69636200  1
  Mg  Mg32  1  0.70244700  0.14972200  0.69947100  1
  Mg  Mg33  1  0.53511600  0.85290900  0.74130400  1
  Mg  Mg34  1  0.88221500  0.66792400  0.77952900  1
  Mg  Mg35  1  0.96488400  0.30861200  0.75886200  1
  Mg  Mg36  1  0.45244700  0.21222200  0.76197100  1
  Mg  Mg37  1  0.28511600  0.91540900  0.80380400  1
  Cd  Cd38  1  0.04911600  0.46141100  0.23780400  1
  Cd  Cd39  1  0.61821400  0.99692200  0.22052900  1
  Cd  Cd40  1  0.79911600  0.52391100  0.30030400  1
  Cd  Cd41  1  0.36821400  0.05942200  0.28302900  1
  Cd  Cd42  1  0.54911600  0.58641100  0.36280400  1
  Cd  Cd43  1  0.11821400  0.12192200  0.34552900  1
  Cd  Cd44  1  0.29911600  0.64891100  0.42530400  1
  Cd  Cd45  1  0.86821400  0.18442200  0.40802900  1
  Cd  Cd46  1  0.04911600  0.71141100  0.48780400  1
  Cd  Cd47  1  0.61821400  0.24692200  0.47052900  1
  Cd  Cd48  1  0.79911600  0.77391100  0.55030400  1
  Cd  Cd49  1  0.36821400  0.30942200  0.53302900  1
  Cd  Cd50  1  0.54911600  0.83641100  0.61280400  1
  Cd  Cd51  1  0.11821400  0.37192200  0.59552900  1
  Cd  Cd52  1  0.29911600  0.89891100  0.67530400  1
  Cd  Cd53  1  0.86821400  0.43442200  0.65802900  1
  Cd  Cd54  1  0.04911600  0.96141100  0.73780400  1
  Cd  Cd55  1  0.61821400  0.49692200  0.72052900  1
  Cd  Cd56  1  0.79911600  0.02391100  0.80030400  1
  Cd  Cd57  1  0.36821400  0.55942200  0.78302900  1
