# generated using pymatgen
data_Ho13Mg6
_symmetry_space_group_name_H-M   'P 1'
_cell_length_a   5.45155000
_cell_length_b   8.73039247
_cell_length_c   43.10006900
_cell_angle_alpha   90.72372495
_cell_angle_beta   90.00000000
_cell_angle_gamma   90.00000000
_symmetry_Int_Tables_number   1
_chemical_formula_structural   Ho13Mg6
_chemical_formula_sum   'Ho26 Mg12'
_cell_volume   2051.14841300
_cell_formula_units_Z   2
loop_
 _symmetry_equiv_pos_site_id
 _symmetry_equiv_pos_as_xyz
  1  'x, y, z'
loop_
 _atom_site_type_symbol
 _atom_site_label
 _atom_site_symmetry_multiplicity
 _atom_site_fract_x
 _atom_site_fract_y
 _atom_site_fract_z
 _atom_site_occupancy
  Ho  Ho0  1  0.75000000  0.68398900  0.71447400  1
  Ho  Ho1  1  0.25000000  0.04040400  0.72997000  1
  Ho  Ho2  1  0.75000000  0.76732200  0.63114100  1
  Ho  Ho3  1  0.75000000  0.38124700  0.65783300  1
  Ho  Ho4  1  0.25000000  0.12373700  0.64663700  1
  Ho  Ho5  1  0.25000000  0.42648000  0.70327800  1
  Ho  Ho6  1  0.75000000  0.85065600  0.54780700  1
  Ho  Ho7  1  0.75000000  0.46458000  0.57450000  1
  Ho  Ho8  1  0.25000000  0.20707100  0.56330400  1
  Ho  Ho9  1  0.25000000  0.50981300  0.61994500  1
  Ho  Ho10  1  0.75000000  0.93398900  0.46447400  1
  Ho  Ho11  1  0.75000000  0.54791300  0.49116600  1
  Ho  Ho12  1  0.25000000  0.29040400  0.47997000  1
  Ho  Ho13  1  0.25000000  0.59314600  0.53661100  1
  Ho  Ho14  1  0.75000000  0.01732200  0.38114100  1
  Ho  Ho15  1  0.75000000  0.63124700  0.40783300  1
  Ho  Ho16  1  0.25000000  0.37373700  0.39663700  1
  Ho  Ho17  1  0.25000000  0.67648000  0.45327800  1
  Ho  Ho18  1  0.75000000  0.10065600  0.29780700  1
  Ho  Ho19  1  0.75000000  0.71458000  0.32450000  1
  Ho  Ho20  1  0.25000000  0.45707100  0.31330400  1
  Ho  Ho21  1  0.25000000  0.75981300  0.36994500  1
  Ho  Ho22  1  0.75000000  0.18398900  0.21447400  1
  Ho  Ho23  1  0.75000000  0.79791300  0.24116600  1
  Ho  Ho24  1  0.25000000  0.54040400  0.22997000  1
  Ho  Ho25  1  0.25000000  0.84314600  0.28661100  1
  Mg  Mg26  1  0.75000000  0.03071100  0.68607100  1
  Mg  Mg27  1  0.25000000  0.77701600  0.67504000  1
  Mg  Mg28  1  0.75000000  0.11404400  0.60273700  1
  Mg  Mg29  1  0.25000000  0.86034900  0.59170700  1
  Mg  Mg30  1  0.75000000  0.19737700  0.51940400  1
  Mg  Mg31  1  0.25000000  0.94368200  0.50837400  1
  Mg  Mg32  1  0.75000000  0.28071100  0.43607100  1
  Mg  Mg33  1  0.25000000  0.02701600  0.42504000  1
  Mg  Mg34  1  0.75000000  0.36404400  0.35273700  1
  Mg  Mg35  1  0.25000000  0.11034900  0.34170700  1
  Mg  Mg36  1  0.75000000  0.44737700  0.26940400  1
  Mg  Mg37  1  0.25000000  0.19368200  0.25837400  1
